<?xml version="1.0" encoding="UTF-8"?>

<!-- generated on 2024-01-12 12:12:49.182637 by osmWebWizard.py v1_18_0+0000-03ecfdea036
<configuration>
    <net-file value="D:\Repositorios_GitHub\Tesis-Implementacion\2024-01-12-12-12-45\osm.net.xml.gz"/>
    <output-trip-file value="D:\Repositorios_GitHub\Tesis-Implementacion\2024-01-12-12-12-45\osm.passenger.trips.xml"/>
    <route-file value="D:\Repositorios_GitHub\Tesis-Implementacion\2024-01-12-12-12-45\osm.passenger.rou.xml"/>
    <prefix value="veh"/>
    <trip-attributes value="departLane=&quot;best&quot;"/>
    <fringe-start-attributes value="departSpeed=&quot;max&quot;"/>
    <vehicle-class value="passenger"/>
    <lanes value="True"/>
    <fringe-factor value="5"/>
    <allow-fringe.min-length value="1000.0"/>
    <via-edge-types value="highway.motorway,highway.motorway_link,highway.trunk_link,highway.primary_link,highway.secondary_link,highway.tertiary_link"/>
    <min-distance value="300.0"/>
    <min-distance.fringe value="10.0"/>
    <remove-loops value="True"/>
    <validate value="True"/>
    <insertion-density value="12.0"/>
</configuration>
-->

<!-- generated on 2024-01-12 12:12:49 by Eclipse SUMO duarouter Version 1.18.0
<configuration xmlns:xsi="http://www.w3.org/2001/XMLSchema-instance" xsi:noNamespaceSchemaLocation="http://sumo.dlr.de/xsd/duarouterConfiguration.xsd">

    <input>
        <net-file value="D:\Repositorios_GitHub\Tesis-Implementacion\2024-01-12-12-12-45\osm.net.xml.gz"/>
        <route-files value="D:\Repositorios_GitHub\Tesis-Implementacion\2024-01-12-12-12-45\osm.passenger.trips.xml"/>
    </input>

    <output>
        <output-file value="D:\Repositorios_GitHub\Tesis-Implementacion\2024-01-12-12-12-45\osm.passenger.trips.xml.tmp"/>
        <alternatives-output value="NUL"/>
        <write-trips value="true"/>
    </output>

    <processing>
        <remove-loops value="true"/>
    </processing>

    <time>
        <begin value="0.0"/>
        <end value="3600.0"/>
    </time>

    <report>
        <no-warnings value="true"/>
        <ignore-errors value="true"/>
        <no-step-log value="true"/>
    </report>

</configuration>
-->

<routes xmlns:xsi="http://www.w3.org/2001/XMLSchema-instance" xsi:noNamespaceSchemaLocation="http://sumo.dlr.de/xsd/routes_file.xsd">
    <vType id="veh_passenger" vClass="passenger"/>
    <trip id="veh0" type="veh_passenger" depart="0.00" departLane="best" departSpeed="max" from="45896901#0" to="-105241833#0"/>
    <trip id="veh1" type="veh_passenger" depart="16.16" departLane="best" from="105241833#1" to="105700042#1"/>
    <trip id="veh2" type="veh_passenger" depart="32.32" departLane="best" departSpeed="max" from="93893688#0" to="376549266"/>
    <trip id="veh3" type="veh_passenger" depart="48.48" departLane="best" departSpeed="max" from="93904216" to="-105241833#3"/>
    <trip id="veh4" type="veh_passenger" depart="64.64" departLane="best" departSpeed="max" from="1190079821#0" to="-105241833#0"/>
    <trip id="veh5" type="veh_passenger" depart="80.80" departLane="best" departSpeed="max" from="105241833#0" to="338243614"/>
    <trip id="veh6" type="veh_passenger" depart="96.96" departLane="best" departSpeed="max" from="45896901#0" to="338243614"/>
    <trip id="veh7" type="veh_passenger" depart="113.13" departLane="best" departSpeed="max" from="105241833#0" to="376549266"/>
    <trip id="veh8" type="veh_passenger" depart="129.29" departLane="best" departSpeed="max" from="93893688#0" to="-105241833#0"/>
    <trip id="veh9" type="veh_passenger" depart="145.45" departLane="best" departSpeed="max" from="93893688#0" to="376549266"/>
    <trip id="veh10" type="veh_passenger" depart="161.61" departLane="best" departSpeed="max" from="105700370#0" to="93893687#3"/>
    <trip id="veh11" type="veh_passenger" depart="177.77" departLane="best" departSpeed="max" from="93904216" to="105700042#1"/>
    <trip id="veh12" type="veh_passenger" depart="193.93" departLane="best" departSpeed="max" from="93893688#0" to="376549266"/>
    <trip id="veh15" type="veh_passenger" depart="242.41" departLane="best" departSpeed="max" from="93893688#0" to="376549266"/>
    <trip id="veh16" type="veh_passenger" depart="258.57" departLane="best" from="93893688#1" to="376549266"/>
    <trip id="veh17" type="veh_passenger" depart="274.73" departLane="best" from="-93893687#1" to="-105241833#0"/>
    <trip id="veh18" type="veh_passenger" depart="290.89" departLane="best" departSpeed="max" from="105241833#0" to="105700042#1"/>
    <trip id="veh19" type="veh_passenger" depart="307.05" departLane="best" departSpeed="max" from="-338243614" to="105700042#1"/>
    <trip id="veh20" type="veh_passenger" depart="323.21" departLane="best" from="-93893687#0" to="105700042#1"/>
    <trip id="veh21" type="veh_passenger" depart="339.38" departLane="best" departSpeed="max" from="45896901#0" to="105700043#1"/>
    <trip id="veh22" type="veh_passenger" depart="355.54" departLane="best" departSpeed="max" from="105700370#0" to="105700042#1"/>
    <trip id="veh23" type="veh_passenger" depart="371.70" departLane="best" from="105241833#1" to="93893687#4"/>
    <trip id="veh24" type="veh_passenger" depart="387.86" departLane="best" departSpeed="max" from="-93893687#4" to="45896901#2"/>
    <trip id="veh25" type="veh_passenger" depart="404.02" departLane="best" departSpeed="max" from="-93893687#4" to="105700043#1"/>
    <trip id="veh26" type="veh_passenger" depart="420.18" departLane="best" departSpeed="max" from="93904216" to="376549266"/>
    <trip id="veh27" type="veh_passenger" depart="436.34" departLane="best" from="376549265" to="376549266"/>
    <trip id="veh28" type="veh_passenger" depart="452.50" departLane="best" departSpeed="max" from="105700370#0" to="105700042#1"/>
    <trip id="veh29" type="veh_passenger" depart="468.66" departLane="best" departSpeed="max" from="105241833#0" to="93893687#4"/>
    <trip id="veh30" type="veh_passenger" depart="484.82" departLane="best" from="93893688#1" to="105700042#1"/>
    <trip id="veh31" type="veh_passenger" depart="500.98" departLane="best" departSpeed="max" from="45896901#0" to="105700043#1"/>
    <trip id="veh32" type="veh_passenger" depart="517.14" departLane="best" departSpeed="max" from="93904216" to="105700043#1"/>
    <trip id="veh33" type="veh_passenger" depart="533.30" departLane="best" departSpeed="max" from="105241833#0" to="105700042#1"/>
    <trip id="veh34" type="veh_passenger" depart="549.46" departLane="best" from="376549265" to="105700042#1"/>
    <trip id="veh35" type="veh_passenger" depart="565.63" departLane="best" departSpeed="max" from="45896901#0" to="93893687#3"/>
    <trip id="veh36" type="veh_passenger" depart="581.79" departLane="best" departSpeed="max" from="105700370#0" to="105700042#1"/>
    <trip id="veh37" type="veh_passenger" depart="597.95" departLane="best" departSpeed="max" from="-338243614" to="-105241833#0"/>
    <trip id="veh38" type="veh_passenger" depart="614.11" departLane="best" from="93893687#1" to="376549266"/>
    <trip id="veh39" type="veh_passenger" depart="630.27" departLane="best" departSpeed="max" from="93893688#0" to="105700043#1"/>
    <trip id="veh40" type="veh_passenger" depart="646.43" departLane="best" departSpeed="max" from="-338243614" to="105700043#1"/>
    <trip id="veh41" type="veh_passenger" depart="662.59" departLane="best" departSpeed="max" from="93904216" to="-93893687#0"/>
    <trip id="veh42" type="veh_passenger" depart="678.75" departLane="best" from="105241833#1" to="45896901#2"/>
    <trip id="veh43" type="veh_passenger" depart="694.91" departLane="best" departSpeed="max" from="45896901#0" to="338243614"/>
    <trip id="veh44" type="veh_passenger" depart="711.07" departLane="best" from="105241833#1" to="376549266"/>
    <trip id="veh45" type="veh_passenger" depart="727.23" departLane="best" from="-93893687#1" to="105700043#1"/>
    <trip id="veh46" type="veh_passenger" depart="743.39" departLane="best" departSpeed="max" from="1190079821#0" to="93893687#4"/>
    <trip id="veh47" type="veh_passenger" depart="759.55" departLane="best" from="93893688#1" to="105700042#1"/>
    <trip id="veh48" type="veh_passenger" depart="775.71" departLane="best" departSpeed="max" from="1190079821#0" to="-105241833#3"/>
    <trip id="veh49" type="veh_passenger" depart="791.88" departLane="best" from="105241833#4" to="376549266"/>
    <trip id="veh50" type="veh_passenger" depart="808.04" departLane="best" departSpeed="max" from="45896901#0" to="93893687#3"/>
    <trip id="veh51" type="veh_passenger" depart="824.20" departLane="best" departSpeed="max" from="93893688#0" to="338243614"/>
    <trip id="veh52" type="veh_passenger" depart="840.36" departLane="best" departSpeed="max" from="93893688#0" to="338243614"/>
    <trip id="veh53" type="veh_passenger" depart="856.52" departLane="best" from="105241833#1" to="105700042#1"/>
    <trip id="veh54" type="veh_passenger" depart="872.68" departLane="best" from="105241833#3" to="93893687#4"/>
    <trip id="veh55" type="veh_passenger" depart="888.84" departLane="best" departSpeed="max" from="105700370#0" to="-105241833#0"/>
    <trip id="veh56" type="veh_passenger" depart="905.00" departLane="best" from="93893688#1" to="93893687#4"/>
    <trip id="veh57" type="veh_passenger" depart="921.16" departLane="best" departSpeed="max" from="-338243614" to="45896901#2"/>
    <trip id="veh58" type="veh_passenger" depart="937.32" departLane="best" departSpeed="max" from="93893688#0" to="-93893687#1"/>
    <trip id="veh60" type="veh_passenger" depart="969.64" departLane="best" departSpeed="max" from="105241833#0" to="93893687#1"/>
    <trip id="veh61" type="veh_passenger" depart="985.80" departLane="best" departSpeed="max" from="1190079821#0" to="45896901#2"/>
    <trip id="veh62" type="veh_passenger" depart="1001.97" departLane="best" departSpeed="max" from="-93893687#4" to="105700042#1"/>
    <trip id="veh63" type="veh_passenger" depart="1018.13" departLane="best" departSpeed="max" from="93904216" to="376549266"/>
    <trip id="veh64" type="veh_passenger" depart="1034.29" departLane="best" departSpeed="max" from="1190079821#0" to="338243614"/>
    <trip id="veh65" type="veh_passenger" depart="1050.45" departLane="best" from="-93893687#2" to="105700042#1"/>
    <trip id="veh66" type="veh_passenger" depart="1066.61" departLane="best" departSpeed="max" from="105700370#0" to="376549266"/>
    <trip id="veh67" type="veh_passenger" depart="1082.77" departLane="best" departSpeed="max" from="105241833#0" to="105700042#1"/>
    <trip id="veh68" type="veh_passenger" depart="1098.93" departLane="best" departSpeed="max" from="-338243614" to="376549266"/>
    <trip id="veh69" type="veh_passenger" depart="1115.09" departLane="best" departSpeed="max" from="105241833#0" to="93893687#4"/>
    <trip id="veh70" type="veh_passenger" depart="1131.25" departLane="best" from="93893688#1" to="-105241833#1"/>
    <trip id="veh71" type="veh_passenger" depart="1147.41" departLane="best" departSpeed="max" from="105241833#0" to="376549266"/>
    <trip id="veh72" type="veh_passenger" depart="1163.57" departLane="best" departSpeed="max" from="105241833#0" to="93893687#1"/>
    <trip id="veh73" type="veh_passenger" depart="1179.73" departLane="best" departSpeed="max" from="1190079821#0" to="45896901#2"/>
    <trip id="veh74" type="veh_passenger" depart="1195.89" departLane="best" departSpeed="max" from="93893688#0" to="-105241833#3"/>
    <trip id="veh75" type="veh_passenger" depart="1212.05" departLane="best" from="93893687#0" to="105700043#1"/>
    <trip id="veh76" type="veh_passenger" depart="1228.22" departLane="best" departSpeed="max" from="1190079821#0" to="105700043#1"/>
    <trip id="veh77" type="veh_passenger" depart="1244.38" departLane="best" from="-93893687#3" to="376549266"/>
    <trip id="veh78" type="veh_passenger" depart="1260.54" departLane="best" departSpeed="max" from="93904216" to="-105241833#4"/>
    <trip id="veh79" type="veh_passenger" depart="1276.70" departLane="best" departSpeed="max" from="105700370#0" to="105700042#1"/>
    <trip id="veh80" type="veh_passenger" depart="1292.86" departLane="best" from="93893688#1" to="105700042#1"/>
    <trip id="veh81" type="veh_passenger" depart="1309.02" departLane="best" departSpeed="max" from="-93893687#4" to="105700043#1"/>
    <trip id="veh82" type="veh_passenger" depart="1325.18" departLane="best" departSpeed="max" from="105241833#0" to="93893687#4"/>
    <trip id="veh83" type="veh_passenger" depart="1341.34" departLane="best" departSpeed="max" from="1190079821#0" to="-93893687#0"/>
    <trip id="veh84" type="veh_passenger" depart="1357.50" departLane="best" from="376549265" to="-105241833#0"/>
    <trip id="veh85" type="veh_passenger" depart="1373.66" departLane="best" departSpeed="max" from="93904216" to="45896901#2"/>
    <trip id="veh86" type="veh_passenger" depart="1389.82" departLane="best" departSpeed="max" from="93893688#0" to="-105241833#1"/>
    <trip id="veh87" type="veh_passenger" depart="1405.98" departLane="best" departSpeed="max" from="105700370#0" to="-105241833#0"/>
    <trip id="veh89" type="veh_passenger" depart="1438.30" departLane="best" from="105241833#1" to="45896901#2"/>
    <trip id="veh90" type="veh_passenger" depart="1454.47" departLane="best" departSpeed="max" from="1190079821#0" to="105700043#1"/>
    <trip id="veh91" type="veh_passenger" depart="1470.63" departLane="best" from="376549265" to="45896901#2"/>
    <trip id="veh92" type="veh_passenger" depart="1486.79" departLane="best" departSpeed="max" from="-93893687#4" to="105700042#1"/>
    <trip id="veh93" type="veh_passenger" depart="1502.95" departLane="best" departSpeed="max" from="93904216" to="376549266"/>
    <trip id="veh94" type="veh_passenger" depart="1519.11" departLane="best" from="376549265" to="45896901#2"/>
    <trip id="veh95" type="veh_passenger" depart="1535.27" departLane="best" departSpeed="max" from="-338243614" to="376549266"/>
    <trip id="veh96" type="veh_passenger" depart="1551.43" departLane="best" departSpeed="max" from="1190079821#0" to="-93893687#0"/>
    <trip id="veh97" type="veh_passenger" depart="1567.59" departLane="best" departSpeed="max" from="105241833#0" to="93893687#0"/>
    <trip id="veh98" type="veh_passenger" depart="1583.75" departLane="best" departSpeed="max" from="93904216" to="105700042#1"/>
    <trip id="veh99" type="veh_passenger" depart="1599.91" departLane="best" departSpeed="max" from="105700370#0" to="376549266"/>
    <trip id="veh100" type="veh_passenger" depart="1616.07" departLane="best" departSpeed="max" from="1190079821#0" to="93893687#4"/>
    <trip id="veh101" type="veh_passenger" depart="1632.23" departLane="best" departSpeed="max" from="-93893687#4" to="45896901#2"/>
    <trip id="veh102" type="veh_passenger" depart="1648.39" departLane="best" departSpeed="max" from="105241833#0" to="105700043#1"/>
    <trip id="veh103" type="veh_passenger" depart="1664.55" departLane="best" departSpeed="max" from="45896901#0" to="105700042#1"/>
    <trip id="veh104" type="veh_passenger" depart="1680.72" departLane="best" departSpeed="max" from="105700370#0" to="45896901#2"/>
    <trip id="veh105" type="veh_passenger" depart="1696.88" departLane="best" departSpeed="max" from="-338243614" to="105700043#1"/>
    <trip id="veh106" type="veh_passenger" depart="1713.04" departLane="best" departSpeed="max" from="-338243614" to="105700042#1"/>
    <trip id="veh107" type="veh_passenger" depart="1729.20" departLane="best" from="105241833#1" to="93893687#4"/>
    <trip id="veh108" type="veh_passenger" depart="1745.36" departLane="best" departSpeed="max" from="105700370#0" to="93893687#3"/>
    <trip id="veh109" type="veh_passenger" depart="1761.52" departLane="best" departSpeed="max" from="93893688#0" to="376549266"/>
    <trip id="veh111" type="veh_passenger" depart="1793.84" departLane="best" departSpeed="max" from="45896901#0" to="-105241833#0"/>
    <trip id="veh112" type="veh_passenger" depart="1810.00" departLane="best" departSpeed="max" from="93893688#0" to="105700042#1"/>
    <trip id="veh113" type="veh_passenger" depart="1826.16" departLane="best" departSpeed="max" from="45896901#0" to="93893687#4"/>
    <trip id="veh114" type="veh_passenger" depart="1842.32" departLane="best" from="105241833#1" to="376549266"/>
    <trip id="veh115" type="veh_passenger" depart="1858.48" departLane="best" departSpeed="max" from="45896901#0" to="105700042#1"/>
    <trip id="veh116" type="veh_passenger" depart="1874.64" departLane="best" departSpeed="max" from="1190079821#0" to="93893687#4"/>
    <trip id="veh117" type="veh_passenger" depart="1890.81" departLane="best" departSpeed="max" from="93893688#0" to="-105241833#3"/>
    <trip id="veh118" type="veh_passenger" depart="1906.97" departLane="best" from="105241833#1" to="45896901#2"/>
    <trip id="veh119" type="veh_passenger" depart="1923.13" departLane="best" departSpeed="max" from="45896901#0" to="105700042#1"/>
    <trip id="veh120" type="veh_passenger" depart="1939.29" departLane="best" departSpeed="max" from="93893688#0" to="376549265"/>
    <trip id="veh121" type="veh_passenger" depart="1955.45" departLane="best" departSpeed="max" from="1190079821#0" to="-105241833#0"/>
    <trip id="veh122" type="veh_passenger" depart="1971.61" departLane="best" departSpeed="max" from="93893688#0" to="376549266"/>
    <trip id="veh123" type="veh_passenger" depart="1987.77" departLane="best" departSpeed="max" from="-93893687#4" to="-93893687#1"/>
    <trip id="veh124" type="veh_passenger" depart="2003.93" departLane="best" departSpeed="max" from="105700370#0" to="93893687#3"/>
    <trip id="veh125" type="veh_passenger" depart="2020.09" departLane="best" departSpeed="max" from="93893688#0" to="-93893687#0"/>
    <trip id="veh126" type="veh_passenger" depart="2036.25" departLane="best" departSpeed="max" from="93904216" to="105700042#1"/>
    <trip id="veh127" type="veh_passenger" depart="2052.41" departLane="best" departSpeed="max" from="105241833#0" to="105241833#4"/>
    <trip id="veh128" type="veh_passenger" depart="2068.57" departLane="best" departSpeed="max" from="93893688#0" to="-93893687#2"/>
    <trip id="veh129" type="veh_passenger" depart="2084.73" departLane="best" departSpeed="max" from="105700370#0" to="376549266"/>
    <trip id="veh130" type="veh_passenger" depart="2100.89" departLane="best" from="93893688#1" to="93893688#1"/>
    <trip id="veh131" type="veh_passenger" depart="2117.06" departLane="best" departSpeed="max" from="93893688#0" to="-93893687#2"/>
    <trip id="veh132" type="veh_passenger" depart="2133.22" departLane="best" from="-105241833#4" to="45896901#2"/>
    <trip id="veh133" type="veh_passenger" depart="2149.38" departLane="best" departSpeed="max" from="105700370#0" to="93893687#4"/>
    <trip id="veh134" type="veh_passenger" depart="2165.54" departLane="best" departSpeed="max" from="93893688#0" to="-93893687#1"/>
    <trip id="veh135" type="veh_passenger" depart="2181.70" departLane="best" departSpeed="max" from="93893688#0" to="105700042#1"/>
    <trip id="veh136" type="veh_passenger" depart="2197.86" departLane="best" departSpeed="max" from="93893688#0" to="-105241833#4"/>
    <trip id="veh137" type="veh_passenger" depart="2214.02" departLane="best" from="93893688#1" to="-93893687#0"/>
    <trip id="veh138" type="veh_passenger" depart="2230.18" departLane="best" departSpeed="max" from="105241833#0" to="45896901#2"/>
    <trip id="veh139" type="veh_passenger" depart="2246.34" departLane="best" departSpeed="max" from="93893688#0" to="105700042#1"/>
    <trip id="veh140" type="veh_passenger" depart="2262.50" departLane="best" departSpeed="max" from="105700370#0" to="93893687#1"/>
    <trip id="veh141" type="veh_passenger" depart="2278.66" departLane="best" departSpeed="max" from="93904216" to="105700042#1"/>
    <trip id="veh142" type="veh_passenger" depart="2294.82" departLane="best" departSpeed="max" from="45896901#0" to="105700043#1"/>
    <trip id="veh143" type="veh_passenger" depart="2310.98" departLane="best" departSpeed="max" from="93904216" to="-93893687#0"/>
    <trip id="veh144" type="veh_passenger" depart="2327.14" departLane="best" departSpeed="max" from="93904216" to="-105241833#3"/>
    <trip id="veh145" type="veh_passenger" depart="2343.31" departLane="best" departSpeed="max" from="93904216" to="105700042#1"/>
    <trip id="veh146" type="veh_passenger" depart="2359.47" departLane="best" from="93893687#0" to="105700043#1"/>
    <trip id="veh147" type="veh_passenger" depart="2375.63" departLane="best" from="-93893687#3" to="105700042#1"/>
    <trip id="veh148" type="veh_passenger" depart="2391.79" departLane="best" departSpeed="max" from="45896901#0" to="338243614"/>
    <trip id="veh149" type="veh_passenger" depart="2407.95" departLane="best" departSpeed="max" from="105700370#0" to="376549266"/>
    <trip id="veh150" type="veh_passenger" depart="2424.11" departLane="best" departSpeed="max" from="105241833#0" to="376549266"/>
    <trip id="veh151" type="veh_passenger" depart="2440.27" departLane="best" from="105241833#1" to="93893687#4"/>
    <trip id="veh152" type="veh_passenger" depart="2456.43" departLane="best" departSpeed="max" from="1190079821#0" to="45896901#2"/>
    <trip id="veh153" type="veh_passenger" depart="2472.59" departLane="best" departSpeed="max" from="93893688#0" to="376549266"/>
    <trip id="veh154" type="veh_passenger" depart="2488.75" departLane="best" departSpeed="max" from="105700370#0" to="-105241833#1"/>
    <trip id="veh155" type="veh_passenger" depart="2504.91" departLane="best" departSpeed="max" from="45896901#0" to="105700042#1"/>
    <trip id="veh156" type="veh_passenger" depart="2521.07" departLane="best" departSpeed="max" from="105700370#0" to="45896901#2"/>
    <trip id="veh157" type="veh_passenger" depart="2537.23" departLane="best" from="-93893687#2" to="105700042#1"/>
    <trip id="veh158" type="veh_passenger" depart="2553.40" departLane="best" departSpeed="max" from="105700370#0" to="105700042#1"/>
    <trip id="veh159" type="veh_passenger" depart="2569.56" departLane="best" from="-93893687#2" to="105700043#1"/>
    <trip id="veh160" type="veh_passenger" depart="2585.72" departLane="best" departSpeed="max" from="93904216" to="376549266"/>
    <trip id="veh161" type="veh_passenger" depart="2601.88" departLane="best" departSpeed="max" from="93904216" to="376549266"/>
    <trip id="veh162" type="veh_passenger" depart="2618.04" departLane="best" from="105241833#1" to="105700042#1"/>
    <trip id="veh163" type="veh_passenger" depart="2634.20" departLane="best" departSpeed="max" from="1190079821#0" to="376549266"/>
    <trip id="veh164" type="veh_passenger" depart="2650.36" departLane="best" departSpeed="max" from="45896901#0" to="105700043#1"/>
    <trip id="veh165" type="veh_passenger" depart="2666.52" departLane="best" departSpeed="max" from="1190079821#0" to="93893687#3"/>
    <trip id="veh166" type="veh_passenger" depart="2682.68" departLane="best" departSpeed="max" from="93893688#0" to="-105241833#1"/>
    <trip id="veh167" type="veh_passenger" depart="2698.84" departLane="best" departSpeed="max" from="45896901#0" to="105700042#1"/>
    <trip id="veh168" type="veh_passenger" depart="2715.00" departLane="best" departSpeed="max" from="45896901#0" to="105700042#1"/>
    <trip id="veh169" type="veh_passenger" depart="2731.16" departLane="best" departSpeed="max" from="-93893687#4" to="-105241833#0"/>
    <trip id="veh170" type="veh_passenger" depart="2747.32" departLane="best" departSpeed="max" from="105241833#0" to="105700043#1"/>
    <trip id="veh171" type="veh_passenger" depart="2763.48" departLane="best" departSpeed="max" from="93893688#0" to="-105241833#1"/>
    <trip id="veh172" type="veh_passenger" depart="2779.65" departLane="best" departSpeed="max" from="105700370#0" to="376549266"/>
    <trip id="veh173" type="veh_passenger" depart="2795.81" departLane="best" departSpeed="max" from="-93893687#4" to="376549266"/>
    <trip id="veh174" type="veh_passenger" depart="2811.97" departLane="best" departSpeed="max" from="45896901#0" to="-105241833#0"/>
    <trip id="veh175" type="veh_passenger" depart="2828.13" departLane="best" from="93893687#0" to="105700043#1"/>
    <trip id="veh176" type="veh_passenger" depart="2844.29" departLane="best" departSpeed="max" from="1190079821#0" to="-105241833#0"/>
    <trip id="veh177" type="veh_passenger" depart="2860.45" departLane="best" departSpeed="max" from="105241833#0" to="45896901#2"/>
    <trip id="veh178" type="veh_passenger" depart="2876.61" departLane="best" departSpeed="max" from="1190079821#0" to="45896901#2"/>
    <trip id="veh180" type="veh_passenger" depart="2908.93" departLane="best" departSpeed="max" from="45896901#0" to="93893687#4"/>
    <trip id="veh181" type="veh_passenger" depart="2925.09" departLane="best" departSpeed="max" from="93904216" to="376549266"/>
    <trip id="veh182" type="veh_passenger" depart="2941.25" departLane="best" departSpeed="max" from="93893688#0" to="338243614"/>
    <trip id="veh183" type="veh_passenger" depart="2957.41" departLane="best" departSpeed="max" from="93904216" to="45896901#2"/>
    <trip id="veh184" type="veh_passenger" depart="2973.57" departLane="best" departSpeed="max" from="105241833#0" to="376549266"/>
    <trip id="veh185" type="veh_passenger" depart="2989.73" departLane="best" departSpeed="max" from="93893688#0" to="338243614"/>
    <trip id="veh186" type="veh_passenger" depart="3005.90" departLane="best" departSpeed="max" from="45896901#0" to="105700042#1"/>
    <trip id="veh187" type="veh_passenger" depart="3022.06" departLane="best" departSpeed="max" from="-338243614" to="105700042#1"/>
    <trip id="veh188" type="veh_passenger" depart="3038.22" departLane="best" from="105241833#1" to="105700042#1"/>
    <trip id="veh189" type="veh_passenger" depart="3054.38" departLane="best" departSpeed="max" from="1190079821#0" to="93893687#2"/>
    <trip id="veh190" type="veh_passenger" depart="3070.54" departLane="best" departSpeed="max" from="105241833#0" to="376549266"/>
    <trip id="veh191" type="veh_passenger" depart="3086.70" departLane="best" from="-93893687#1" to="-105241833#0"/>
    <trip id="veh192" type="veh_passenger" depart="3102.86" departLane="best" departSpeed="max" from="105700370#0" to="338243614"/>
    <trip id="veh193" type="veh_passenger" depart="3119.02" departLane="best" departSpeed="max" from="105700370#0" to="105700042#1"/>
    <trip id="veh194" type="veh_passenger" depart="3135.18" departLane="best" departSpeed="max" from="105700370#0" to="93893687#4"/>
    <trip id="veh195" type="veh_passenger" depart="3151.34" departLane="best" departSpeed="max" from="105700370#0" to="-105241833#0"/>
    <trip id="veh196" type="veh_passenger" depart="3167.50" departLane="best" departSpeed="max" from="105700370#0" to="45896901#2"/>
    <trip id="veh197" type="veh_passenger" depart="3183.66" departLane="best" departSpeed="max" from="93893688#0" to="93893687#4"/>
    <trip id="veh198" type="veh_passenger" depart="3199.82" departLane="best" departSpeed="max" from="105700370#0" to="45896901#2"/>
    <trip id="veh199" type="veh_passenger" depart="3215.98" departLane="best" from="376549265" to="376549266"/>
    <trip id="veh200" type="veh_passenger" depart="3232.15" departLane="best" departSpeed="max" from="105241833#0" to="105700042#1"/>
    <trip id="veh201" type="veh_passenger" depart="3248.31" departLane="best" departSpeed="max" from="1190079821#0" to="-105241833#0"/>
    <trip id="veh202" type="veh_passenger" depart="3264.47" departLane="best" departSpeed="max" from="105700370#0" to="376549266"/>
    <trip id="veh203" type="veh_passenger" depart="3280.63" departLane="best" departSpeed="max" from="105700370#0" to="-105241833#1"/>
    <trip id="veh204" type="veh_passenger" depart="3296.79" departLane="best" departSpeed="max" from="1190079821#0" to="93893687#1"/>
    <trip id="veh205" type="veh_passenger" depart="3312.95" departLane="best" departSpeed="max" from="45896901#0" to="-105241833#0"/>
    <trip id="veh207" type="veh_passenger" depart="3345.27" departLane="best" from="105241833#4" to="376549266"/>
    <trip id="veh208" type="veh_passenger" depart="3361.43" departLane="best" from="-93893687#3" to="105700043#1"/>
    <trip id="veh209" type="veh_passenger" depart="3377.59" departLane="best" departSpeed="max" from="-338243614" to="105700043#1"/>
    <trip id="veh210" type="veh_passenger" depart="3393.75" departLane="best" departSpeed="max" from="105241833#0" to="105700042#1"/>
    <trip id="veh211" type="veh_passenger" depart="3409.91" departLane="best" departSpeed="max" from="93893688#0" to="105700043#1"/>
    <trip id="veh212" type="veh_passenger" depart="3426.07" departLane="best" departSpeed="max" from="93904216" to="105700043#1"/>
    <trip id="veh213" type="veh_passenger" depart="3442.24" departLane="best" departSpeed="max" from="45896901#0" to="45896901#2"/>
    <trip id="veh214" type="veh_passenger" depart="3458.40" departLane="best" departSpeed="max" from="45896901#0" to="45896901#2"/>
    <trip id="veh215" type="veh_passenger" depart="3474.56" departLane="best" departSpeed="max" from="93904216" to="-105241833#4"/>
    <trip id="veh216" type="veh_passenger" depart="3490.72" departLane="best" from="93893687#2" to="376549266"/>
    <trip id="veh217" type="veh_passenger" depart="3506.88" departLane="best" from="376549265" to="105700042#1"/>
    <trip id="veh218" type="veh_passenger" depart="3523.04" departLane="best" from="-93893687#1" to="45896901#2"/>
    <trip id="veh219" type="veh_passenger" depart="3539.20" departLane="best" departSpeed="max" from="-93893687#4" to="376549266"/>
    <trip id="veh220" type="veh_passenger" depart="3555.36" departLane="best" departSpeed="max" from="93893688#0" to="-93893687#0"/>
    <trip id="veh221" type="veh_passenger" depart="3571.52" departLane="best" departSpeed="max" from="93893688#0" to="93893687#4"/>
    <trip id="veh222" type="veh_passenger" depart="3587.68" departLane="best" from="-93893687#0" to="-105241833#0"/>
</routes>
