<?xml version="1.0" encoding="UTF-8"?>

<!-- generated on 2024-05-01 13:47:02 by Eclipse SUMO netedit Version 1.18.0
<configuration xmlns:xsi="http://www.w3.org/2001/XMLSchema-instance" xsi:noNamespaceSchemaLocation="http://sumo.dlr.de/xsd/neteditConfiguration.xsd">

    <input>
        <sumocfg-file value="D:\Repositorios_GitHub\Tesis-Implementacion\SUMO\Mapa\osm.sumocfg"/>
        <route-files value="D:\Repositorios_GitHub\Tesis-Implementacion\SUMO\Mapa\osm.rou.xml"/>
        <sumo-net-file value="D:\Repositorios_GitHub\Tesis-Implementacion\SUMO\Mapa\osm.net.xml"/>
    </input>

    <output>
        <output-file value="D:\Repositorios_GitHub\Tesis-Implementacion\SUMO\Mapa\osm.net.xml"/>
        <output.street-names value="true"/>
    </output>

    <processing>
        <geometry.min-radius.fix.railways value="false"/>
        <geometry.max-grade.fix value="false"/>
        <offset.disable-normalization value="true"/>
        <lefthand value="0"/>
    </processing>

    <junctions>
        <no-turnarounds value="true"/>
        <junctions.corner-detail value="5"/>
        <junctions.limit-turn-speed value="5.50"/>
        <rectangular-lane-cut value="0"/>
    </junctions>

    <pedestrian>
        <walkingareas value="0"/>
    </pedestrian>

</configuration>
-->

<net version="1.16" junctionCornerDetail="5" limitTurnSpeed="5.50" xmlns:xsi="http://www.w3.org/2001/XMLSchema-instance" xsi:noNamespaceSchemaLocation="http://sumo.dlr.de/xsd/net_file.xsd">

    <location netOffset="-518337.63,3641265.33" convBoundary="848.58,0.00,1750.83,671.80" origBoundary="-68.803918,-32.909426,-68.778289,-32.900518" projParameter="+proj=utm +zone=19 +ellps=WGS84 +datum=WGS84 +units=m +no_defs"/>

    <type id="highway.motorway" priority="14" numLanes="2" speed="39.44" allow="private emergency authority army vip passenger hov taxi bus coach delivery truck trailer motorcycle evehicle custom1 custom2" oneway="1"/>
    <type id="highway.residential" priority="3" numLanes="1" speed="13.89" disallow="tram rail_urban rail rail_electric rail_fast ship" oneway="0"/>
    <type id="highway.secondary" priority="11" numLanes="1" speed="27.78" disallow="tram rail_urban rail rail_electric rail_fast ship" oneway="0"/>
    <type id="highway.service" priority="1" numLanes="1" speed="5.56" allow="pedestrian delivery bicycle" oneway="0"/>
    <type id="highway.tertiary" priority="10" numLanes="1" speed="22.22" disallow="tram rail_urban rail rail_electric rail_fast ship" oneway="0"/>

    <edge id=":1091532720_0" function="internal">
        <lane id=":1091532720_0_0" index="0" allow="private emergency authority army vip passenger hov taxi bus coach delivery truck trailer motorcycle evehicle custom1 custom2" speed="25.00" length="33.26" shape="1424.11,283.57 1431.37,282.95 1438.74,282.40 1446.99,281.39 1456.86,279.41"/>
        <lane id=":1091532720_0_1" index="1" allow="private emergency authority army vip passenger hov taxi bus coach delivery truck trailer motorcycle evehicle custom1 custom2" speed="25.00" length="33.26" shape="1424.46,286.75 1431.67,285.64 1438.92,283.99 1447.05,281.89 1456.86,279.41"/>
        <lane id=":1091532720_0_2" index="2" allow="private emergency authority army vip passenger hov taxi bus coach delivery truck trailer motorcycle evehicle custom1 custom2" speed="25.00" length="33.26" shape="1424.46,286.75 1431.78,286.12 1439.30,285.54 1447.68,284.51 1457.61,282.52"/>
    </edge>
    <edge id=":1091532720_3" function="internal">
        <lane id=":1091532720_3_0" index="0" allow="private emergency authority army vip passenger hov taxi bus coach delivery truck trailer motorcycle evehicle custom1 custom2" speed="36.11" length="33.50" shape="1425.07,290.35 1457.61,282.52"/>
        <lane id=":1091532720_3_1" index="1" allow="private emergency authority army vip passenger hov taxi bus coach delivery truck trailer motorcycle evehicle custom1 custom2" speed="36.11" length="33.50" shape="1425.78,293.47 1458.37,285.63"/>
    </edge>
    <edge id=":1091712333_0" function="internal">
        <lane id=":1091712333_0_0" index="0" disallow="tram rail_urban rail rail_electric rail_fast ship" speed="7.81" length="14.65" shape="1281.70,437.87 1280.86,433.88 1281.57,430.71 1283.82,428.38 1287.62,426.88"/>
        <lane id=":1091712333_0_1" index="1" disallow="tram rail_urban rail rail_electric rail_fast ship" speed="6.27" length="9.04" shape="1284.71,436.78 1284.19,434.31 1284.63,432.36 1286.02,430.92 1288.36,429.99"/>
    </edge>
    <edge id=":1091712333_2" function="internal">
        <lane id=":1091712333_2_0" index="0" disallow="tram rail_urban rail rail_electric rail_fast ship" speed="16.66" length="14.47" shape="1273.54,430.29 1287.62,426.88"/>
        <lane id=":1091712333_2_1" index="1" disallow="tram rail_urban rail rail_electric rail_fast ship" speed="16.66" length="14.47" shape="1274.31,433.40 1288.36,429.99"/>
    </edge>
    <edge id=":1091712573_0" function="internal">
        <lane id=":1091712573_0_0" index="0" disallow="tram rail_urban rail rail_electric rail_fast ship" speed="27.78" length="14.59" shape="1351.86,490.23 1346.96,476.49"/>
    </edge>
    <edge id=":1091712573_1" function="internal">
        <lane id=":1091712573_1_0" index="0" disallow="tram rail_urban rail rail_electric rail_fast ship" speed="8.55" length="3.93" shape="1351.86,490.23 1351.21,486.35"/>
    </edge>
    <edge id=":1091712573_2" function="internal">
        <lane id=":1091712573_2_0" index="0" disallow="tram rail_urban rail rail_electric rail_fast ship" speed="3.65" length="1.44" shape="1351.86,490.23 1352.19,488.83"/>
    </edge>
    <edge id=":1091712573_10" function="internal">
        <lane id=":1091712573_10_0" index="0" disallow="tram rail_urban rail rail_electric rail_fast ship" speed="8.55" length="13.33" shape="1351.21,486.35 1351.18,486.16 1352.40,482.77 1355.50,480.04 1360.50,478.00"/>
    </edge>
    <edge id=":1091712573_11" function="internal">
        <lane id=":1091712573_11_0" index="0" disallow="tram rail_urban rail rail_electric rail_fast ship" speed="3.65" length="3.23" shape="1352.19,488.83 1352.80,488.18 1353.69,488.28 1354.86,489.13"/>
    </edge>
    <edge id=":1091712573_3" function="internal">
        <lane id=":1091712573_3_0" index="0" disallow="tram rail_urban rail rail_electric rail_fast ship" speed="6.36" length="9.04" shape="1361.38,481.07 1359.10,482.10 1357.76,483.60 1357.34,485.58 1357.86,488.02"/>
    </edge>
    <edge id=":1091712573_4" function="internal">
        <lane id=":1091712573_4_0" index="0" disallow="tram rail_urban rail rail_electric rail_fast ship" speed="8.85" length="16.92" shape="1361.38,481.07 1356.10,482.05 1351.93,481.61 1348.89,479.76 1346.96,476.49"/>
    </edge>
    <edge id=":1091712573_5" function="internal">
        <lane id=":1091712573_5_0" index="0" disallow="tram rail_urban rail rail_electric rail_fast ship" speed="3.65" length="4.67" shape="1361.38,481.07 1360.01,480.64 1359.40,479.98 1359.57,479.10 1360.50,478.00"/>
    </edge>
    <edge id=":1091712573_6" function="internal">
        <lane id=":1091712573_6_0" index="0" disallow="tram rail_urban rail rail_electric rail_fast ship" speed="6.73" length="9.36" shape="1353.02,474.41 1354.16,476.59 1355.78,477.92 1357.90,478.39 1360.50,478.00"/>
    </edge>
    <edge id=":1091712573_7" function="internal">
        <lane id=":1091712573_7_0" index="0" disallow="tram rail_urban rail rail_electric rail_fast ship" speed="27.78" length="14.48" shape="1353.02,474.41 1357.86,488.02"/>
        <lane id=":1091712573_7_1" index="1" disallow="tram rail_urban rail rail_electric rail_fast ship" speed="27.78" length="14.48" shape="1349.99,475.45 1354.86,489.13"/>
    </edge>
    <edge id=":1091712573_9" function="internal">
        <lane id=":1091712573_9_0" index="0" disallow="tram rail_urban rail rail_electric rail_fast ship" speed="3.65" length="1.44" shape="1349.99,475.45 1349.62,476.84"/>
    </edge>
    <edge id=":1091712573_12" function="internal">
        <lane id=":1091712573_12_0" index="0" disallow="tram rail_urban rail rail_electric rail_fast ship" speed="3.65" length="3.23" shape="1349.62,476.84 1349.00,477.48 1348.11,477.36 1346.96,476.49"/>
    </edge>
    <edge id=":1212793872_0" function="internal">
        <lane id=":1212793872_0_0" index="0" disallow="tram rail_urban rail rail_electric rail_fast ship" speed="3.65" length="4.67" shape="1210.64,0.50 1211.03,-0.89 1211.66,-1.52 1212.55,-1.39 1213.68,-0.50"/>
    </edge>
    <edge id=":3453236840_0" function="internal">
        <lane id=":3453236840_0_0" index="0" disallow="tram rail_urban rail rail_electric rail_fast ship" speed="3.65" length="4.67" shape="1439.07,455.38 1440.44,455.82 1441.05,456.48 1440.88,457.36 1439.95,458.46"/>
    </edge>
    <edge id=":3661017721_0" function="internal">
        <lane id=":3661017721_0_0" index="0" allow="private emergency authority army vip passenger hov taxi bus coach delivery truck trailer motorcycle evehicle custom1 custom2" speed="23.61" length="20.45" shape="1185.99,377.59 1180.05,378.08 1175.94,378.34 1171.93,379.01 1166.28,380.78"/>
        <lane id=":3661017721_0_1" index="1" allow="private emergency authority army vip passenger hov taxi bus coach delivery truck trailer motorcycle evehicle custom1 custom2" speed="23.61" length="20.45" shape="1185.63,374.41 1179.77,375.39 1175.83,376.72 1171.95,378.49 1166.28,380.78"/>
        <lane id=":3661017721_0_2" index="2" allow="private emergency authority army vip passenger hov taxi bus coach delivery truck trailer motorcycle evehicle custom1 custom2" speed="23.61" length="20.45" shape="1185.63,374.41 1179.62,374.91 1175.34,375.19 1171.10,375.92 1165.20,377.77"/>
    </edge>
    <edge id=":3661017721_3" function="internal">
        <lane id=":3661017721_3_0" index="0" allow="private emergency authority army vip passenger hov taxi bus coach delivery truck trailer motorcycle evehicle custom1 custom2" speed="34.72" length="30.36" shape="1193.75,367.63 1165.20,377.77"/>
        <lane id=":3661017721_3_1" index="1" allow="private emergency authority army vip passenger hov taxi bus coach delivery truck trailer motorcycle evehicle custom1 custom2" speed="34.72" length="30.36" shape="1192.77,364.58 1164.11,374.76"/>
    </edge>
    <edge id=":4525584291_0" function="internal">
        <lane id=":4525584291_0_0" index="0" allow="private emergency authority army vip passenger hov taxi bus coach delivery truck trailer motorcycle evehicle custom1 custom2" speed="23.61" length="43.02" shape="1136.93,368.59 1147.65,364.09 1158.20,358.94 1167.79,353.94 1175.64,349.87"/>
        <lane id=":4525584291_0_1" index="1" allow="private emergency authority army vip passenger hov taxi bus coach delivery truck trailer motorcycle evehicle custom1 custom2" speed="23.61" length="43.36" shape="1138.04,371.59 1148.81,367.07 1159.46,361.88 1169.16,356.82 1177.06,352.74"/>
    </edge>
    <edge id=":4525584291_2" function="internal">
        <lane id=":4525584291_2_0" index="0" allow="private emergency authority army vip passenger hov taxi bus coach delivery truck trailer motorcycle evehicle custom1 custom2" speed="34.72" length="42.71" shape="1138.04,371.59 1178.03,356.65"/>
        <lane id=":4525584291_2_1" index="1" allow="private emergency authority army vip passenger hov taxi bus coach delivery truck trailer motorcycle evehicle custom1 custom2" speed="34.72" length="42.71" shape="1139.15,374.59 1179.17,359.65"/>
    </edge>
    <edge id=":585119522_0" function="internal">
        <lane id=":585119522_0_0" index="0" disallow="tram rail_urban rail rail_electric rail_fast ship" speed="27.78" length="15.34" shape="1329.81,426.46 1328.23,423.39 1326.21,420.69 1324.12,417.47 1322.36,412.84"/>
        <lane id=":585119522_0_1" index="1" disallow="tram rail_urban rail rail_electric rail_fast ship" speed="27.78" length="15.34" shape="1329.81,426.46 1325.46,412.03"/>
    </edge>
    <edge id=":585119522_2" function="internal">
        <lane id=":585119522_2_0" index="0" disallow="tram rail_urban rail rail_electric rail_fast ship" speed="6.54" length="9.22" shape="1331.65,410.43 1332.63,412.73 1334.12,414.17 1336.14,414.72 1338.68,414.39"/>
        <lane id=":585119522_2_1" index="1" disallow="tram rail_urban rail rail_electric rail_fast ship" speed="7.35" length="11.93" shape="1331.65,410.43 1332.98,414.09 1334.73,416.49 1336.91,417.62 1339.52,417.48"/>
    </edge>
    <edge id=":585119522_4" function="internal">
        <lane id=":585119522_4_0" index="0" disallow="tram rail_urban rail rail_electric rail_fast ship" speed="27.78" length="14.70" shape="1331.65,410.43 1335.86,424.38"/>
        <lane id=":585119522_4_1" index="1" disallow="tram rail_urban rail rail_electric rail_fast ship" speed="27.78" length="14.70" shape="1328.56,411.23 1332.83,425.42"/>
    </edge>
    <edge id=":585119522_6" function="internal">
        <lane id=":585119522_6_0" index="0" disallow="tram rail_urban rail rail_electric rail_fast ship" speed="6.46" length="9.03" shape="1318.30,419.59 1320.61,418.68 1322.05,417.25 1322.64,415.30 1322.36,412.84"/>
        <lane id=":585119522_6_1" index="1" disallow="tram rail_urban rail rail_electric rail_fast ship" speed="7.28" length="11.76" shape="1318.30,419.59 1321.97,418.35 1324.38,416.68 1325.55,414.58 1325.46,412.03"/>
    </edge>
    <edge id=":585119522_8" function="internal">
        <lane id=":585119522_8_0" index="0" disallow="tram rail_urban rail rail_electric rail_fast ship" speed="22.22" length="21.08" shape="1318.30,419.59 1338.68,414.39"/>
        <lane id=":585119522_8_1" index="1" disallow="tram rail_urban rail rail_electric rail_fast ship" speed="22.22" length="21.08" shape="1319.04,422.71 1339.52,417.48"/>
    </edge>
    <edge id=":585119522_10" function="internal">
        <lane id=":585119522_10_0" index="0" disallow="tram rail_urban rail rail_electric rail_fast ship" speed="8.59" length="15.29" shape="1319.04,422.71 1324.36,421.82 1328.44,421.97 1331.26,423.17 1332.83,425.42"/>
    </edge>
    <edge id=":585120968_0" function="internal">
        <lane id=":585120968_0_0" index="0" allow="private emergency authority army vip passenger hov taxi bus coach delivery truck trailer motorcycle evehicle custom1 custom2" speed="23.61" length="28.31" shape="1442.01,303.09 1433.44,305.61 1427.27,308.22 1421.95,310.97 1415.96,313.92"/>
        <lane id=":585120968_0_1" index="1" allow="private emergency authority army vip passenger hov taxi bus coach delivery truck trailer motorcycle evehicle custom1 custom2" speed="23.61" length="28.89" shape="1441.26,299.98 1432.48,302.56 1426.13,305.23 1420.69,308.03 1414.65,311.00"/>
    </edge>
    <edge id=":585120968_2" function="internal">
        <lane id=":585120968_2_0" index="0" allow="private emergency authority army vip passenger hov taxi bus coach delivery truck trailer motorcycle evehicle custom1 custom2" speed="34.72" length="28.83" shape="1441.26,299.98 1413.38,307.31"/>
        <lane id=":585120968_2_1" index="1" allow="private emergency authority army vip passenger hov taxi bus coach delivery truck trailer motorcycle evehicle custom1 custom2" speed="34.72" length="28.83" shape="1440.50,296.87 1412.62,304.20"/>
    </edge>
    <edge id=":6025570867_0" function="internal">
        <lane id=":6025570867_0_0" index="0" allow="pedestrian delivery bicycle" speed="5.08" length="5.05" shape="1388.71,167.31 1388.18,166.01 1387.38,165.19 1386.29,164.85 1384.94,164.97"/>
    </edge>
    <edge id=":6025570867_1" function="internal">
        <lane id=":6025570867_1_0" index="0" allow="pedestrian delivery bicycle" speed="5.56" length="10.22" shape="1388.71,167.31 1388.41,164.52 1389.08,162.31 1390.72,160.69 1393.32,159.65"/>
    </edge>
    <edge id=":6025570867_2" function="internal">
        <lane id=":6025570867_2_0" index="0" allow="pedestrian delivery bicycle" speed="3.65" length="4.67" shape="1388.71,167.31 1389.19,165.95 1389.87,165.36 1390.74,165.55 1391.81,166.52"/>
    </edge>
    <edge id=":6025570867_3" function="internal">
        <lane id=":6025570867_3_0" index="0" allow="pedestrian delivery bicycle" speed="5.03" length="5.01" shape="1394.07,162.76 1392.79,163.27 1391.99,164.07 1391.66,165.15 1391.81,166.52"/>
    </edge>
    <edge id=":6025570867_4" function="internal">
        <lane id=":6025570867_4_0" index="0" allow="pedestrian delivery bicycle" speed="5.56" length="9.40" shape="1394.07,162.76 1384.94,164.97"/>
    </edge>
    <edge id=":6025570867_5" function="internal">
        <lane id=":6025570867_5_0" index="0" allow="pedestrian delivery bicycle" speed="3.65" length="4.67" shape="1394.07,162.76 1392.72,162.27 1392.14,161.58 1392.34,160.71 1393.32,159.65"/>
    </edge>
    <edge id=":6025570867_6" function="internal">
        <lane id=":6025570867_6_0" index="0" allow="pedestrian delivery bicycle" speed="5.56" length="9.40" shape="1384.18,161.86 1393.32,159.65"/>
    </edge>
    <edge id=":6025570867_7" function="internal">
        <lane id=":6025570867_7_0" index="0" allow="pedestrian delivery bicycle" speed="5.56" length="10.17" shape="1384.18,161.86 1386.93,161.60 1389.12,162.29 1390.75,163.93 1391.81,166.52"/>
    </edge>
    <edge id=":6025570867_8" function="internal">
        <lane id=":6025570867_8_0" index="0" allow="pedestrian delivery bicycle" speed="3.65" length="4.67" shape="1384.18,161.86 1385.54,162.36 1386.11,163.04 1385.91,163.91 1384.94,164.97"/>
    </edge>
    <edge id=":6025570868_0" function="internal">
        <lane id=":6025570868_0_0" index="0" allow="pedestrian delivery bicycle" speed="5.56" length="9.41" shape="1402.70,196.69 1393.59,199.02"/>
    </edge>
    <edge id=":6025570868_1" function="internal">
        <lane id=":6025570868_1_0" index="0" allow="pedestrian delivery bicycle" speed="5.56" length="10.16" shape="1402.70,196.69 1399.93,197.00 1397.73,196.34 1396.10,194.72 1395.04,192.15"/>
    </edge>
    <edge id=":6025570868_2" function="internal">
        <lane id=":6025570868_2_0" index="0" allow="pedestrian delivery bicycle" speed="3.65" length="4.67" shape="1402.70,196.69 1401.34,196.22 1400.76,195.54 1400.95,194.67 1401.91,193.59"/>
    </edge>
    <edge id=":6025570868_3" function="internal">
        <lane id=":6025570868_3_0" index="0" allow="pedestrian delivery bicycle" speed="5.04" length="5.00" shape="1398.14,191.36 1398.66,192.62 1399.46,193.42 1400.55,193.74 1401.91,193.59"/>
    </edge>
    <edge id=":6025570868_4" function="internal">
        <lane id=":6025570868_4_0" index="0" allow="pedestrian delivery bicycle" speed="5.56" length="10.16" shape="1398.14,191.36 1398.44,194.13 1397.78,196.33 1396.16,197.96 1393.59,199.02"/>
    </edge>
    <edge id=":6025570868_5" function="internal">
        <lane id=":6025570868_5_0" index="0" allow="pedestrian delivery bicycle" speed="3.65" length="4.67" shape="1398.14,191.36 1397.66,192.72 1396.98,193.30 1396.11,193.11 1395.04,192.15"/>
    </edge>
    <edge id=":6025570868_6" function="internal">
        <lane id=":6025570868_6_0" index="0" allow="pedestrian delivery bicycle" speed="5.04" length="5.00" shape="1392.80,195.92 1394.07,195.40 1394.86,194.59 1395.19,193.51 1395.04,192.15"/>
    </edge>
    <edge id=":6025570868_7" function="internal">
        <lane id=":6025570868_7_0" index="0" allow="pedestrian delivery bicycle" speed="5.56" length="9.40" shape="1392.80,195.92 1401.91,193.59"/>
    </edge>
    <edge id=":6025570868_8" function="internal">
        <lane id=":6025570868_8_0" index="0" allow="pedestrian delivery bicycle" speed="3.65" length="4.67" shape="1392.80,195.92 1394.16,196.40 1394.74,197.07 1394.55,197.95 1393.59,199.02"/>
    </edge>
    <edge id=":6025570869_0" function="internal">
        <lane id=":6025570869_0_0" index="0" allow="pedestrian delivery bicycle" speed="5.04" length="5.00" shape="1373.11,171.03 1372.60,169.76 1371.81,168.95 1370.73,168.61 1369.37,168.74"/>
    </edge>
    <edge id=":6025570869_1" function="internal">
        <lane id=":6025570869_1_0" index="0" allow="pedestrian delivery bicycle" speed="5.56" length="10.16" shape="1373.11,171.03 1372.85,168.26 1373.54,166.06 1375.17,164.45 1377.75,163.42"/>
    </edge>
    <edge id=":6025570869_2" function="internal">
        <lane id=":6025570869_2_0" index="0" allow="pedestrian delivery bicycle" speed="3.65" length="4.67" shape="1373.11,171.03 1373.61,169.68 1374.29,169.10 1375.16,169.30 1376.22,170.29"/>
    </edge>
    <edge id=":6025570869_3" function="internal">
        <lane id=":6025570869_3_0" index="0" allow="pedestrian delivery bicycle" speed="5.05" length="5.01" shape="1378.51,166.53 1377.23,167.04 1376.43,167.83 1376.09,168.92 1376.22,170.29"/>
    </edge>
    <edge id=":6025570869_4" function="internal">
        <lane id=":6025570869_4_0" index="0" allow="pedestrian delivery bicycle" speed="5.56" length="9.40" shape="1378.51,166.53 1369.37,168.74"/>
    </edge>
    <edge id=":6025570869_5" function="internal">
        <lane id=":6025570869_5_0" index="0" allow="pedestrian delivery bicycle" speed="3.65" length="4.67" shape="1378.51,166.53 1377.15,166.04 1376.57,165.35 1376.77,164.48 1377.75,163.42"/>
    </edge>
    <edge id=":6025570869_6" function="internal">
        <lane id=":6025570869_6_0" index="0" allow="pedestrian delivery bicycle" speed="5.56" length="9.40" shape="1368.62,165.63 1377.75,163.42"/>
    </edge>
    <edge id=":6025570869_7" function="internal">
        <lane id=":6025570869_7_0" index="0" allow="pedestrian delivery bicycle" speed="5.56" length="10.17" shape="1368.62,165.63 1371.39,165.37 1373.59,166.05 1375.20,167.69 1376.22,170.29"/>
    </edge>
    <edge id=":6025570869_8" function="internal">
        <lane id=":6025570869_8_0" index="0" allow="pedestrian delivery bicycle" speed="3.65" length="4.67" shape="1368.62,165.63 1369.97,166.13 1370.55,166.81 1370.35,167.68 1369.37,168.74"/>
    </edge>
    <edge id=":6025570870_0" function="internal">
        <lane id=":6025570870_0_0" index="0" allow="pedestrian delivery bicycle" speed="5.56" length="9.40" shape="1386.76,200.75 1377.66,203.07"/>
    </edge>
    <edge id=":6025570870_1" function="internal">
        <lane id=":6025570870_1_0" index="0" allow="pedestrian delivery bicycle" speed="5.56" length="10.23" shape="1386.76,200.75 1383.97,201.05 1381.76,200.38 1380.14,198.74 1379.11,196.13"/>
    </edge>
    <edge id=":6025570870_2" function="internal">
        <lane id=":6025570870_2_0" index="0" allow="pedestrian delivery bicycle" speed="3.65" length="4.67" shape="1386.76,200.75 1385.40,200.27 1384.82,199.60 1385.01,198.72 1385.98,197.65"/>
    </edge>
    <edge id=":6025570870_3" function="internal">
        <lane id=":6025570870_3_0" index="0" allow="pedestrian delivery bicycle" speed="5.03" length="5.02" shape="1382.22,195.38 1382.73,196.66 1383.52,197.47 1384.61,197.80 1385.98,197.65"/>
    </edge>
    <edge id=":6025570870_4" function="internal">
        <lane id=":6025570870_4_0" index="0" allow="pedestrian delivery bicycle" speed="5.56" length="10.16" shape="1382.22,195.38 1382.49,198.17 1381.82,200.38 1380.21,202.01 1377.66,203.07"/>
    </edge>
    <edge id=":6025570870_5" function="internal">
        <lane id=":6025570870_5_0" index="0" allow="pedestrian delivery bicycle" speed="3.65" length="4.67" shape="1382.22,195.38 1381.72,196.74 1381.04,197.31 1380.17,197.11 1379.11,196.13"/>
    </edge>
    <edge id=":6025570870_6" function="internal">
        <lane id=":6025570870_6_0" index="0" allow="pedestrian delivery bicycle" speed="5.09" length="5.06" shape="1376.87,199.97 1378.12,199.44 1378.92,198.63 1379.25,197.52 1379.11,196.13"/>
    </edge>
    <edge id=":6025570870_7" function="internal">
        <lane id=":6025570870_7_0" index="0" allow="pedestrian delivery bicycle" speed="5.56" length="9.40" shape="1376.87,199.97 1385.98,197.65"/>
    </edge>
    <edge id=":6025570870_8" function="internal">
        <lane id=":6025570870_8_0" index="0" allow="pedestrian delivery bicycle" speed="3.65" length="4.67" shape="1376.87,199.97 1378.23,200.45 1378.81,201.12 1378.62,202.00 1377.66,203.07"/>
    </edge>
    <edge id=":6025570871_0" function="internal">
        <lane id=":6025570871_0_0" index="0" allow="pedestrian delivery bicycle" speed="5.10" length="5.07" shape="1341.75,178.69 1341.21,177.38 1340.40,176.56 1339.32,176.20 1337.96,176.33"/>
    </edge>
    <edge id=":6025570871_1" function="internal">
        <lane id=":6025570871_1_0" index="0" allow="pedestrian delivery bicycle" speed="5.56" length="10.25" shape="1341.75,178.69 1341.44,175.89 1342.10,173.68 1343.73,172.05 1346.35,171.01"/>
    </edge>
    <edge id=":6025570871_2" function="internal">
        <lane id=":6025570871_2_0" index="0" allow="pedestrian delivery bicycle" speed="3.65" length="4.67" shape="1341.75,178.69 1342.22,177.33 1342.90,176.74 1343.77,176.92 1344.85,177.88"/>
    </edge>
    <edge id=":6025570871_3" function="internal">
        <lane id=":6025570871_3_0" index="0" allow="pedestrian delivery bicycle" speed="5.02" length="5.02" shape="1347.10,174.12 1345.82,174.63 1345.02,175.43 1344.69,176.51 1344.85,177.88"/>
    </edge>
    <edge id=":6025570871_4" function="internal">
        <lane id=":6025570871_4_0" index="0" allow="pedestrian delivery bicycle" speed="5.56" length="9.40" shape="1347.10,174.12 1337.96,176.33"/>
    </edge>
    <edge id=":6025570871_5" function="internal">
        <lane id=":6025570871_5_0" index="0" allow="pedestrian delivery bicycle" speed="3.65" length="4.67" shape="1347.10,174.12 1345.75,173.62 1345.17,172.94 1345.37,172.07 1346.35,171.01"/>
    </edge>
    <edge id=":6025570871_6" function="internal">
        <lane id=":6025570871_6_0" index="0" allow="pedestrian delivery bicycle" speed="5.56" length="9.40" shape="1337.21,173.22 1346.35,171.01"/>
    </edge>
    <edge id=":6025570871_7" function="internal">
        <lane id=":6025570871_7_0" index="0" allow="pedestrian delivery bicycle" speed="5.56" length="10.17" shape="1337.21,173.22 1339.95,172.96 1342.14,173.65 1343.77,175.29 1344.85,177.88"/>
    </edge>
    <edge id=":6025570871_8" function="internal">
        <lane id=":6025570871_8_0" index="0" allow="pedestrian delivery bicycle" speed="3.65" length="4.67" shape="1337.21,173.22 1338.57,173.71 1339.14,174.39 1338.94,175.27 1337.96,176.33"/>
    </edge>
    <edge id=":6025570872_0" function="internal">
        <lane id=":6025570872_0_0" index="0" allow="pedestrian delivery bicycle" speed="5.56" length="9.40" shape="1356.03,208.58 1346.92,210.91"/>
    </edge>
    <edge id=":6025570872_1" function="internal">
        <lane id=":6025570872_1_0" index="0" allow="pedestrian delivery bicycle" speed="5.56" length="10.16" shape="1356.03,208.58 1353.27,208.88 1351.08,208.22 1349.44,206.60 1348.36,204.03"/>
    </edge>
    <edge id=":6025570872_2" function="internal">
        <lane id=":6025570872_2_0" index="0" allow="pedestrian delivery bicycle" speed="3.65" length="4.67" shape="1356.03,208.58 1354.67,208.10 1354.09,207.43 1354.28,206.55 1355.24,205.48"/>
    </edge>
    <edge id=":6025570872_3" function="internal">
        <lane id=":6025570872_3_0" index="0" allow="pedestrian delivery bicycle" speed="5.06" length="5.02" shape="1351.46,203.22 1351.99,204.50 1352.80,205.30 1353.88,205.63 1355.24,205.48"/>
    </edge>
    <edge id=":6025570872_4" function="internal">
        <lane id=":6025570872_4_0" index="0" allow="pedestrian delivery bicycle" speed="5.56" length="10.19" shape="1351.46,203.22 1351.77,206.00 1351.12,208.20 1349.51,209.84 1346.92,210.91"/>
    </edge>
    <edge id=":6025570872_5" function="internal">
        <lane id=":6025570872_5_0" index="0" allow="pedestrian delivery bicycle" speed="3.65" length="4.67" shape="1351.46,203.22 1350.99,204.58 1350.31,205.17 1349.44,204.99 1348.36,204.03"/>
    </edge>
    <edge id=":6025570872_6" function="internal">
        <lane id=":6025570872_6_0" index="0" allow="pedestrian delivery bicycle" speed="5.03" length="5.01" shape="1346.13,207.80 1347.40,207.28 1348.20,206.48 1348.52,205.39 1348.36,204.03"/>
    </edge>
    <edge id=":6025570872_7" function="internal">
        <lane id=":6025570872_7_0" index="0" allow="pedestrian delivery bicycle" speed="5.56" length="9.40" shape="1346.13,207.80 1355.24,205.48"/>
    </edge>
    <edge id=":6025570872_8" function="internal">
        <lane id=":6025570872_8_0" index="0" allow="pedestrian delivery bicycle" speed="3.65" length="4.67" shape="1346.13,207.80 1347.49,208.28 1348.08,208.96 1347.89,209.83 1346.92,210.91"/>
    </edge>
    <edge id=":6025570873_0" function="internal">
        <lane id=":6025570873_0_0" index="0" allow="pedestrian delivery bicycle" speed="5.08" length="5.05" shape="1326.66,182.31 1326.13,181.02 1325.33,180.19 1324.25,179.85 1322.89,179.97"/>
    </edge>
    <edge id=":6025570873_1" function="internal">
        <lane id=":6025570873_1_0" index="0" allow="pedestrian delivery bicycle" speed="5.56" length="10.22" shape="1326.66,182.31 1326.36,179.52 1327.03,177.31 1328.67,175.69 1331.27,174.65"/>
    </edge>
    <edge id=":6025570873_2" function="internal">
        <lane id=":6025570873_2_0" index="0" allow="pedestrian delivery bicycle" speed="3.65" length="4.67" shape="1326.66,182.31 1327.14,180.95 1327.82,180.36 1328.69,180.55 1329.76,181.52"/>
    </edge>
    <edge id=":6025570873_3" function="internal">
        <lane id=":6025570873_3_0" index="0" allow="pedestrian delivery bicycle" speed="5.03" length="5.01" shape="1332.02,177.76 1330.75,178.27 1329.94,179.07 1329.62,180.15 1329.76,181.52"/>
    </edge>
    <edge id=":6025570873_4" function="internal">
        <lane id=":6025570873_4_0" index="0" allow="pedestrian delivery bicycle" speed="5.56" length="9.40" shape="1332.02,177.76 1322.89,179.97"/>
    </edge>
    <edge id=":6025570873_5" function="internal">
        <lane id=":6025570873_5_0" index="0" allow="pedestrian delivery bicycle" speed="3.65" length="4.67" shape="1332.02,177.76 1330.67,177.27 1330.09,176.58 1330.29,175.71 1331.27,174.65"/>
    </edge>
    <edge id=":6025570873_6" function="internal">