<?xml version="1.0" encoding="UTF-8"?>

<!-- generated on 2024-05-01 13:47:02 by Eclipse SUMO netedit Version 1.18.0
-->

<routes xmlns:xsi="http://www.w3.org/2001/XMLSchema-instance" xsi:noNamespaceSchemaLocation="http://sumo.dlr.de/xsd/routes_file.xsd">
    <!-- Vehicles, persons and containers (sorted by depart) -->
    <flow id="f_0" begin="0.00" from="105241833#0" to="105700042#1-AddedOnRampEdge" end="3600.00" period="exp(0.50)"/>
    <flow id="f_1" begin="0.00" from="105241833#0" to="93893687#4" end="3600.00" period="exp(0.50)"/>
    <flow id="f_2" begin="0.00" from="105241833#0" to="105700043#1-AddedOnRampEdge" end="3600.00" period="exp(0.50)"/>
    <flow id="f_3" begin="0.00" color="blue" from="1190079821#0-AddedOffRampEdge" to="93893687#4" end="3600.00" period="exp(0.50)"/>
    <flow id="f_4" begin="0.00" color="blue" from="1190079821#0-AddedOffRampEdge" to="-105241833#0" end="3600.00" period="exp(0.50)"/>
    <flow id="f_5" begin="0.00" color="red" from="-93893687#4" to="105700042#1-AddedOnRampEdge" end="3600.00" period="exp(0.50)"/>
    <flow id="f_6" begin="0.00" color="red" from="-93893687#4" to="105700043#1-AddedOnRampEdge" end="3600.00" period="exp(0.50)"/>
    <flow id="f_7" begin="0.00" color="red" from="-93893687#4" to="-105241833#0" end="3600.00" period="exp(0.50)"/>
    <flow id="f_8" begin="0.00" color="cyan" from="105700370#0-AddedOffRampEdge" to="93893687#4" end="3600.00" period="exp(0.50)"/>
    <flow id="f_9" begin="0.00" color="cyan" from="105700370#0-AddedOffRampEdge" to="-105241833#0" end="3600.00" period="exp(0.50)"/>
</routes>
