<?xml version="1.0" encoding="UTF-8"?>

<!-- generated on 2024-04-11 12:32:36 by Eclipse SUMO sumo Version 1.18.0
-->

<configuration xmlns:xsi="http://www.w3.org/2001/XMLSchema-instance" xsi:noNamespaceSchemaLocation="http://sumo.dlr.de/xsd/sumoConfiguration.xsd">

    <input>
        <net-file value="red.net.xml"/>
        <route-files value="routes.rou.xml"/>
    </input>

</configuration>
