<?xml version="1.0" encoding="UTF-8"?>

<!-- generated on 2024-04-11 12:59:11 by Eclipse SUMO netedit Version 1.18.0
-->

<routes xmlns:xsi="http://www.w3.org/2001/XMLSchema-instance" xsi:noNamespaceSchemaLocation="http://sumo.dlr.de/xsd/routes_file.xsd">
    <!-- Vehicles, persons and containers (sorted by depart) -->
    <flow id="f_0" begin="0.00" color="red" from="E16" to="E9" end="21000.00" period="exp(0.04)"/>
    <flow id="f_1" begin="0.00" color="green" from="E14" to="-E100" end="21000.00" period="exp(0.01)"/>
    <flow id="f_2" begin="0.00" color="cyan" from="E3" to="-E160.69" end="21000.00" period="exp(0.04)"/>
    <flow id="f_3" begin="0.00" color="cyan" from="E31" to="-E160.69" end="21000.00" period="exp(0.04)"/>
    <flow id="f_4" begin="0.00" color="cyan" from="E3" to="-E100" end="21000.00" period="exp(0.04)"/>
    <flow id="f_5" begin="0.00" color="cyan" from="E31" to="-E100" end="21000.00" period="exp(0.03)"/>
    <vehicle id="1" depart="2.20">
        <route edges="E16 E0"/>
    </vehicle>
    <vehicle id="2" depart="4.40">
        <route edges="E14 G K -E20 L E34 E34.31 E33"/>
    </vehicle>
    <vehicle id="3" depart="6.60">
        <route edges="E11 E11.100 E25 A E E1.46 F H -E16 -E160 -E160.47 -E160.69"/>
    </vehicle>
    <vehicle id="4" depart="8.80">
        <route edges="E14 G E15"/>
    </vehicle>
    <vehicle id="5" depart="11.00">
        <route edges="E14 G K -E20 L B -E0 -E0.30 -E12"/>
    </vehicle>
    <vehicle id="6" depart="13.20">
        <route edges="E14 G K -E20 L B -E0 -E0.30 -E12"/>
    </vehicle>
    <vehicle id="8" depart="17.60">
        <route edges="E31 E35 D E1.46 F H E15"/>
    </vehicle>
    <vehicle id="9" depart="19.80">
        <route edges="E16 E160 E1600 I E15"/>
    </vehicle>
    <vehicle id="11" depart="24.20">
        <route edges="E11 E11.100 E25 A E9"/>
    </vehicle>
    <vehicle id="12" depart="26.40">
        <route edges="E14 G -E16 -E160 -E160.47 -E160.69"/>
    </vehicle>
    <vehicle id="13" depart="28.60">
        <route edges="-E00 E160 E1600 I E15"/>
    </vehicle>
    <vehicle id="14" depart="30.80">
        <route edges="E31 E32 E33"/>
    </vehicle>
    <vehicle id="15" depart="33.00">
        <route edges="-E00 E160 E1600 I E15"/>
    </vehicle>
    <vehicle id="16" depart="35.20">
        <route edges="E11 E26 -E100"/>
    </vehicle>
    <vehicle id="18" depart="39.60">
        <route edges="E14 G K -E20 L B -E0 -E0.30 -E12"/>
    </vehicle>
    <vehicle id="20" depart="44.00">
        <route edges="E16 E160 E1600 I K -E20 L E34 E34.31 E33"/>
    </vehicle>
    <vehicle id="21" depart="46.20">
        <route edges="E10 E10.100 C1 C E E1.46 F H -E16 -E160 E1"/>
    </vehicle>
    <vehicle id="23" depart="50.60">
        <route edges="E14 G -E16 -E160 -E160.47 -E160.69"/>
    </vehicle>
    <vehicle id="24" depart="52.80">
        <route edges="E11 E11.100 E25 A E E1.46 F H -E16 -E160 -E160.47 E0"/>
    </vehicle>
    <vehicle id="25" depart="55.00">
        <route edges="E31 E35 D E1.46 F E30 E30.34 E3.498"/>
    </vehicle>
    <vehicle id="26" depart="57.20">
        <route edges="E31 E35 D E1.46 F H E15"/>
    </vehicle>
    <vehicle id="28" depart="61.60">
        <route edges="E16 E160 E1600 I K -E20 L E34 E34.31 E33"/>
    </vehicle>
    <vehicle id="29" depart="63.80">
        <route edges="-E00 E160 E1600 I K -E20 L E34 E34.31 E33"/>
    </vehicle>
    <vehicle id="31" depart="68.20">
        <route edges="E10 E10.100 C1 C E E1.46 F H -E16 -E160 E1"/>
    </vehicle>
    <vehicle id="34" depart="74.80">
        <route edges="E14 G K -E20 L B -E0 -E0.30 -E12"/>
    </vehicle>
    <vehicle id="35" depart="77.00">
        <route edges="E12 -E10 -E100"/>
    </vehicle>
    <vehicle id="37" depart="81.40">
        <route edges="E31 E35 D B -E0 -E0.30 -E10 -E100"/>
    </vehicle>
    <vehicle id="38" depart="83.60">
        <route edges="E16 E160 E1600 I K -E20 L B -E0 -E0.30 -E10 -E100"/>
    </vehicle>
    <vehicle id="40" depart="88.00">
        <route edges="E14 G K -E20 L B -E0 -E0.30 -E12"/>
    </vehicle>
    <vehicle id="41" depart="90.20">
        <route edges="E7 A E E1.46 F H -E16 -E160 -E160.47 -E160.69"/>
    </vehicle>
    <vehicle id="42" depart="92.40">
        <route edges="E10 E10.100 C1 C E E1.46 F H -E16 -E160 -E160.47 -E160.69"/>
    </vehicle>
    <vehicle id="43" depart="94.60">
        <route edges="E31 E35 D E1.46 F H -E16 -E160 -E160.47 E0"/>
    </vehicle>
    <vehicle id="45" depart="99.00">
        <route edges="E31 E35 D E1.46 F H -E16 -E160 -E160.47 -E160.69"/>
    </vehicle>
    <vehicle id="46" depart="101.20">
        <route edges="E12 -E10 -E100"/>
    </vehicle>
    <vehicle id="47" depart="103.40">
        <route edges="E31 E35 D E1.46 F H E15"/>
    </vehicle>
    <vehicle id="49" depart="107.80">
        <route edges="E12 C1 C E E1.46 F H E15"/>
    </vehicle>
    <vehicle id="50" depart="110.00">
        <route edges="E7 A E9"/>
    </vehicle>
    <vehicle id="51" depart="112.20">
        <route edges="E7 A E9"/>
    </vehicle>
    <vehicle id="52" depart="114.40">
        <route edges="E14 G -E16 -E160 E1"/>
    </vehicle>
    <vehicle id="53" depart="116.60">
        <route edges="E12 C1 C E E1.46 F H -E16 -E160 -E160.47 -E160.69"/>
    </vehicle>
    <vehicle id="54" depart="118.80">
        <route edges="E14 G K -E20 L B -E0 -E0.30 -E10 -E100"/>
    </vehicle>
    <vehicle id="55" depart="121.00">
        <route edges="E10 E10.100 -E12"/>
    </vehicle>
    <vehicle id="56" depart="123.20">
        <route edges="E14 G K -E20 L E34 E34.31 E33"/>
    </vehicle>
    <vehicle id="57" depart="125.40">
        <route edges="E31 E35 D B E9"/>
    </vehicle>
    <vehicle id="58" depart="127.60">
        <route edges="E16 E160 E1600 I K -E20 L B -E0 -E0.30 -E10 -E100"/>
    </vehicle>
    <vehicle id="59" depart="129.80">
        <route edges="E11 E11.100 E25 A E E1.46 F H -E16 -E160 -E160.47 -E160.69"/>
    </vehicle>
    <vehicle id="60" depart="132.00">
        <route edges="E14 G K -E20 L B -E0 -E0.30 -E12"/>
    </vehicle>
    <vehicle id="61" depart="134.20">
        <route edges="E11 E11.100 E25 A E E1.46 F H -E16 -E160 -E160.47 E0"/>
    </vehicle>
    <vehicle id="62" depart="136.40">
        <route edges="E12 C1 C E E1.46 F H E15"/>
    </vehicle>
    <vehicle id="63" depart="138.60">
        <route edges="E12 C1 C E E1.46 F E30 E30.34 E3.498"/>
    </vehicle>
    <vehicle id="65" depart="143.00">
        <route edges="E3 E3.300 E3.498"/>
    </vehicle>
    <vehicle id="67" depart="147.40">
        <route edges="E11 E26 -E100"/>
    </vehicle>
    <vehicle id="68" depart="149.60">
        <route edges="E12 C1 C E E34 E34.31 E33"/>
    </vehicle>
    <vehicle id="69" depart="151.80">
        <route edges="E11 E26 E10.100 -E12"/>
    </vehicle>
    <vehicle id="70" depart="154.00">
        <route edges="E31 E35 D B -E0 -E0.30 -E12"/>
    </vehicle>
    <vehicle id="71" depart="156.20">
        <route edges="E31 E35 D B -E0 -E0.30 -E12"/>
    </vehicle>
    <vehicle id="72" depart="158.40">
        <route edges="-E00 E160 E1600 I K -E20 L B E9"/>
    </vehicle>
    <vehicle id="73" depart="160.60">
        <route edges="E11 E11.100 E25 A E E1.46 F H E15"/>
    </vehicle>
    <vehicle id="74" depart="162.80">
        <route edges="E16 E160 E1600 I K -E20 L B -E0 -E0.30 -E10 -E100"/>
    </vehicle>
    <vehicle id="75" depart="165.00">
        <route edges="E10 E10.100 C1 C E E1.46 F H E15"/>
    </vehicle>
    <vehicle id="76" depart="167.20">
        <route edges="E14 G K -E20 L B -E0 -E0.30 -E12"/>
    </vehicle>
    <vehicle id="77" depart="169.40">
        <route edges="E31 E35 D E1.46 F H -E16 -E160 E1"/>
    </vehicle>
    <vehicle id="78" depart="171.60">
        <route edges="E14 G K -E20 L B -E0 -E0.30 -E12"/>
    </vehicle>
    <vehicle id="79" depart="173.80">
        <route edges="E10 E10.100 C1 C E E34 E34.31 E33"/>
    </vehicle>
    <vehicle id="80" depart="176.00">
        <route edges="E10 E10.100 -E12"/>
    </vehicle>
    <vehicle id="82" depart="180.40">
        <route edges="E10 E10.100 C1 C E E34 E34.31 E33"/>
    </vehicle>
    <vehicle id="83" depart="182.60">
        <route edges="E31 E35 D B E9"/>
    </vehicle>
    <vehicle id="84" depart="184.80">
        <route edges="E31 E35 D B -E0 -E0.30 -E12"/>
    </vehicle>
    <vehicle id="85" depart="187.00">
        <route edges="E14 G E15"/>
    </vehicle>
    <vehicle id="86" depart="189.20">
        <route edges="E10 E10.100 C1 C E E34 E34.31 E33"/>
    </vehicle>
    <vehicle id="88" depart="193.60">
        <route edges="E7 A E E1.46 F H -E16 -E160 -E160.47 E0"/>
    </vehicle>
    <vehicle id="89" depart="195.80">
        <route edges="E11 E11.100 E25 A E E1.46 F H -E16 -E160 -E160.47 -E160.69"/>
    </vehicle>
    <vehicle id="90" depart="198.00">
        <route edges="E11 E11.100 E25 A E9"/>
    </vehicle>
    <vehicle id="92" depart="202.40">
        <route edges="E11 E11.100 E25 A E9"/>
    </vehicle>
    <vehicle id="93" depart="204.60">
        <route edges="E11 E11.100 E25 A E E1.46 F E30 E30.34 E3.498"/>
    </vehicle>
    <vehicle id="94" depart="206.80">
        <route edges="E7 A E9"/>
    </vehicle>
    <vehicle id="96" depart="211.20">
        <route edges="E10 E10.100 C1 C E E1.46 F H -E16 -E160 -E160.47 -E160.69"/>
    </vehicle>
    <vehicle id="97" depart="213.40">
        <route edges="E16 E160 E1600 I E15"/>
    </vehicle>
    <vehicle id="98" depart="215.60">
        <route edges="E31 E35 D E1.46 F H -E16 -E160 -E160.47 E0"/>
    </vehicle>
    <vehicle id="100" depart="220.00">
        <route edges="E10 E10.100 C1 C E E1.46 F H E15"/>
    </vehicle>
    <vehicle id="103" depart="226.60">
        <route edges="E7 A -E0 -E0.30 -E10 -E100"/>
    </vehicle>
    <vehicle id="105" depart="231.00">
        <route edges="-E00 E160 E1600 I K -E20 L B -E0 -E0.30 -E12"/>
    </vehicle>
    <vehicle id="106" depart="233.20">
        <route edges="E14 G -E16 -E160 -E160.47 -E160.69"/>
    </vehicle>
    <vehicle id="107" depart="235.40">
        <route edges="E16 E0"/>
    </vehicle>
    <vehicle id="108" depart="237.60">
        <route edges="-E00 E160 E1600 I E15"/>
    </vehicle>
    <vehicle id="110" depart="242.00">
        <route edges="E12 C1 C E E1.46 F H -E16 -E160 -E160.47 -E160.69"/>
    </vehicle>
    <vehicle id="111" depart="244.20">
        <route edges="E7 A E E1.46 F H -E16 -E160 -E160.47 E0"/>
    </vehicle>
    <vehicle id="112" depart="246.40">
        <route edges="E12 C1 C E E34 E34.31 E33"/>
    </vehicle>
    <vehicle id="113" depart="248.60">
        <route edges="E10 E10.100 C1 C E E1.46 F H E15"/>
    </vehicle>
    <vehicle id="114" depart="250.80">
        <route edges="E14 G -E16 -E160 E1"/>
    </vehicle>
    <vehicle id="115" depart="253.00">
        <route edges="E16 E0"/>
    </vehicle>
    <vehicle id="116" depart="255.20">
        <route edges="E16 E160 E1600 I K -E20 L B E9"/>
    </vehicle>
    <vehicle id="118" depart="259.60">
        <route edges="E31 E35 D E1.46 F H E15"/>
    </vehicle>
    <vehicle id="119" depart="261.80">
        <route edges="E12 -E10 -E100"/>
    </vehicle>
    <vehicle id="121" depart="266.20">
        <route edges="E31 E35 D B -E0 -E0.30 -E12"/>
    </vehicle>
    <vehicle id="122" depart="268.40">
        <route edges="E7 A -E0 -E0.30 -E10 -E100"/>
    </vehicle>
    <vehicle id="123" depart="270.60">
        <route edges="E10 E10.100 C1 C E E1.46 F H E15"/>
    </vehicle>
    <vehicle id="125" depart="275.00">
        <route edges="-E00 E160 E1600 I K -E20 L E34 E34.31 E33"/>
    </vehicle>
    <vehicle id="126" depart="277.20">
        <route edges="E11 E26 -E100"/>
    </vehicle>
    <vehicle id="127" depart="279.40">
        <route edges="-E00 -E160.69"/>
    </vehicle>
    <vehicle id="128" depart="281.60">
        <route edges="E12 C1 C E E1.46 F H -E16 -E160 E1"/>
    </vehicle>
    <vehicle id="129" depart="283.80">
        <route edges="E16 E160 E1600 I E15"/>
    </vehicle>
    <vehicle id="131" depart="288.20">
        <route edges="E11 E11.100 E25 A E E1.46 F H -E16 -E160 -E160.47 E0"/>
    </vehicle>
    <vehicle id="132" depart="290.40">
        <route edges="E7 A E E1.46 F H E15"/>
    </vehicle>
    <vehicle id="133" depart="292.60">
        <route edges="E7 A -E0 -E0.30 -E12"/>
    </vehicle>
    <vehicle id="134" depart="294.80">
        <route edges="E7 A E E1.46 F H -E16 -E160 -E160.47 E0"/>
    </vehicle>
    <vehicle id="135" depart="297.00">
        <route edges="E11 E11.100 E25 A E E1.46 F H -E16 -E160 -E160.47 E0"/>
    </vehicle>
    <vehicle id="136" depart="299.20">
        <route edges="E16 E160 E1600 I K -E20 L B E9"/>
    </vehicle>
    <vehicle id="137" depart="301.40">
        <route edges="E11 E11.100 E25 A E E34 E34.31 E33"/>
    </vehicle>
    <vehicle id="138" depart="303.60">
        <route edges="E7 A E9"/>
    </vehicle>
    <vehicle id="139" depart="305.80">
        <route edges="E31 E35 D E1.46 F H -E16 -E160 -E160.47 -E160.69"/>
    </vehicle>
    <vehicle id="140" depart="308.00">
        <route edges="E12 C1 C E E1.46 F H -E16 -E160 -E160.47 E0"/>
    </vehicle>
    <vehicle id="141" depart="310.20">
        <route edges="E31 E35 D E1.46 F H -E16 -E160 -E160.47 E0"/>
    </vehicle>
    <vehicle id="142" depart="312.40">
        <route edges="E14 G K -E20 L B -E0 -E0.30 -E12"/>
    </vehicle>
    <vehicle id="143" depart="314.60">
        <route edges="-E00 -E160.69"/>
    </vehicle>
    <vehicle id="144" depart="316.80">
        <route edges="E14 G -E16 -E160 -E160.47 -E160.69"/>
    </vehicle>
    <vehicle id="147" depart="323.40">
        <route edges="E16 E160 E1600 I K -E20 L E34 E34.31 E33"/>
    </vehicle>
    <vehicle id="148" depart="325.60">
        <route edges="E31 E32 E33"/>
    </vehicle>
    <vehicle id="149" depart="327.80">
        <route edges="E16 E160 E1600 I K -E20 L E34 E34.31 E33"/>
    </vehicle>
    <vehicle id="152" depart="334.40">
        <route edges="E7 A E E1.46 F H -E16 -E160 -E160.47 E0"/>
    </vehicle>
    <vehicle id="154" depart="338.80">
        <route edges="E7 A -E0 -E0.30 -E10 -E100"/>
    </vehicle>
    <vehicle id="155" depart="341.00">
        <route edges="-E00 -E160.69"/>
    </vehicle>
    <vehicle id="157" depart="345.40">
        <route edges="E31 E32 E33"/>
    </vehicle>
    <vehicle id="158" depart="347.60">
        <route edges="E16 E0"/>
    </vehicle>
    <vehicle id="159" depart="349.80">
        <route edges="E16 E0"/>
    </vehicle>
    <vehicle id="161" depart="354.20">
        <route edges="-E00 E160 E1600 I K -E20 L B -E0 -E0.30 -E12"/>
    </vehicle>
    <vehicle id="162" depart="356.40">
        <route edges="E11 E11.100 E25 A E9"/>
    </vehicle>
    <vehicle id="163" depart="358.60">
        <route edges="E16 E160 E1600 I K -E20 L B -E0 -E0.30 -E12"/>
    </vehicle>
    <vehicle id="164" depart="360.80">
        <route edges="-E00 E160 E1600 I K -E20 L B -E0 -E0.30 -E12"/>
    </vehicle>
    <vehicle id="165" depart="363.00">
        <route edges="E14 G K -E20 L B -E0 -E0.30 -E10 -E100"/>
    </vehicle>
    <vehicle id="166" depart="365.20">
        <route edges="E12 C1 C E E1.46 F H -E16 -E160 -E160.47 E0"/>
    </vehicle>
    <vehicle id="167" depart="367.40">
        <route edges="E7 A E9"/>
    </vehicle>
    <vehicle id="168" depart="369.60">
        <route edges="E11 E11.100 E25 A E E1.46 F H -E16 -E160 -E160.47 -E160.69"/>
    </vehicle>
    <vehicle id="169" depart="371.80">
        <route edges="E11 E11.100 E25 A E E1.46 F H E15"/>
    </vehicle>
    <vehicle id="171" depart="376.20">
        <route edges="E31 E35 D E1.46 F E30 E30.34 E3.498"/>
    </vehicle>
    <vehicle id="173" depart="380.60">
        <route edges="E11 E26 -E100"/>
    </vehicle>
    <vehicle id="174" depart="382.80">
        <route edges="E7 A E E34 E34.31 E33"/>
    </vehicle>
    <vehicle id="175" depart="385.00">
        <route edges="E14 G K -E20 L E34 E34.31 E33"/>
    </vehicle>
    <vehicle id="176" depart="387.20">
        <route edges="E14 G E15"/>
    </vehicle>
    <vehicle id="177" depart="389.40">
        <route edges="E14 G K -E20 L B -E0 -E0.30 -E10 -E100"/>
    </vehicle>
    <vehicle id="178" depart="391.60">
        <route edges="E31 E35 D B E9"/>
    </vehicle>
    <vehicle id="179" depart="393.80">
        <route edges="E10 E10.100 C1 C E E1.46 F E30 E30.34 E3.498"/>
    </vehicle>
    <vehicle id="180" depart="396.00">
        <route edges="E14 G -E16 -E160 E1"/>
    </vehicle>
    <vehicle id="182" depart="400.40">
        <route edges="E31 E35 D E1.46 F H -E16 -E160 -E160.47 E0"/>
    </vehicle>
    <vehicle id="183" depart="402.60">
        <route edges="E31 E35 D E1.46 F H E15"/>
    </vehicle>
    <vehicle id="184" depart="404.80">
        <route edges="E12 C1 C E E34 E34.31 E33"/>
    </vehicle>
    <vehicle id="185" depart="407.00">
        <route edges="E14 G K E30 E30.34 E3.498"/>
    </vehicle>
    <vehicle id="187" depart="411.40">
        <route edges="E14 G K -E20 L B -E0 -E0.30 -E10 -E100"/>
    </vehicle>
    <vehicle id="188" depart="413.60">
        <route edges="E14 G -E16 -E160 -E160.47 E0"/>
    </vehicle>
    <vehicle id="189" depart="415.80">
        <route edges="E11 E11.100 E25 A E E1.46 F H E15"/>
    </vehicle>
    <vehicle id="190" depart="418.00">
        <route edges="E14 G K -E20 L E34 E34.31 E33"/>
    </vehicle>
    <vehicle id="191" depart="420.20">
        <route edges="E7 A E9"/>
    </vehicle>
    <vehicle id="193" depart="424.60">
        <route edges="E14 G K -E20 L E34 E34.31 E33"/>
    </vehicle>
    <vehicle id="195" depart="429.00">
        <route edges="E31 E35 D E1.46 F E30 E30.34 E3.498"/>
    </vehicle>
    <vehicle id="196" depart="431.20">
        <route edges="E7 A E E1.46 F H -E16 -E160 -E160.47 -E160.69"/>
    </vehicle>
    <vehicle id="198" depart="435.60">
        <route edges="E11 E11.100 E25 A E E1.46 F E30 E30.34 E3.498"/>
    </vehicle>
    <vehicle id="199" depart="437.80">
        <route edges="E14 G -E16 -E160 E1"/>
    </vehicle>
    <vehicle id="200" depart="440.00">
        <route edges="E14 G -E16 -E160 -E160.47 E0"/>
    </vehicle>
    <vehicle id="201" depart="442.20">
        <route edges="E31 E35 D E1.46 F H E15"/>
    </vehicle>
    <vehicle id="202" depart="444.40">
        <route edges="E31 E35 D E1.46 F E30 E30.34 E3.498"/>
    </vehicle>
    <vehicle id="203" depart="446.60">
        <route edges="E31 E35 D E1.46 F H -E16 -E160 E1"/>
    </vehicle>
    <vehicle id="204" depart="448.80">
        <route edges="E11 E11.100 E25 A E E1.46 F H -E16 -E160 -E160.47 E0"/>
    </vehicle>
    <vehicle id="205" depart="451.00">
        <route edges="-E00 E160 E1600 I K -E20 L E34 E34.31 E33"/>
    </vehicle>
    <vehicle id="206" depart="453.20">
        <route edges="E11 E11.100 E25 A E E1.46 F E30 E30.34 E3.498"/>
    </vehicle>
    <vehicle id="208" depart="457.60">
        <route edges="E31 E35 D E1.46 F H -E16 -E160 -E160.47 -E160.69"/>
    </vehicle>
    <vehicle id="209" depart="459.80">
        <route edges="E16 E160 E1600 I K -E20 L B -E0 -E0.30 -E10 -E100"/>
    </vehicle>
    <vehicle id="210" depart="462.00">
        <route edges="E16 E0"/>
    </vehicle>
    <vehicle id="211" depart="464.20">
        <route edges="E31 E35 D B -E0 -E0.30 -E10 -E100"/>
    </vehicle>
    <vehicle id="212" depart="466.40">
        <route edges="-E00 E160 E1600 I K -E20 L B -E0 -E0.30 -E12"/>
    </vehicle>
    <vehicle id="213" depart="468.60">
        <route edges="E11 E11.100 E25 A E E34 E34.31 E33"/>
    </vehicle>
    <vehicle id="215" depart="473.00">
        <route edges="E11 E26 -E100"/>
    </vehicle>
    <vehicle id="216" depart="475.20">
        <route edges="E11 E11.100 E25 A E9"/>
    </vehicle>
    <vehicle id="217" depart="477.40">
        <route edges="E10 E10.100 C1 C E E1.46 F E30 E30.34 E3.498"/>
    </vehicle>
    <vehicle id="219" depart="481.80">
        <route edges="E10 E10.100 C1 C E E34 E34.31 E33"/>
    </vehicle>
    <vehicle id="220" depart="484.00">
        <route edges="E16 E160 E1600 I K -E20 L E34 E34.31 E33"/>
    </vehicle>
    <vehicle id="222" depart="488.40">
        <route edges="E11 E11.100 E25 A E E1.46 F E30 E30.34 E3.498"/>
    </vehicle>
    <vehicle id="223" depart="490.60">
        <route edges="E14 G E15"/>
    </vehicle>
    <vehicle id="224" depart="492.80">
        <route edges="E31 E35 D B -E0 -E0.30 -E10 -E100"/>
    </vehicle>
    <vehicle id="225" depart="495.00">
        <route edges="E31 E35 D E1.46 F E30 E30.34 E3.498"/>
    </vehicle>
    <vehicle id="226" depart="497.20">
        <route edges="E14 G K -E20 L E34 E34.31 E33"/>
    </vehicle>
    <vehicle id="227" depart="499.40">
        <route edges="E12 C1 C E E1.46 F H -E16 -E160 E1"/>
    </vehicle>
    <vehicle id="228" depart="501.60">
        <route edges="E16 E0"/>
    </vehicle>
    <vehicle id="229" depart="503.80">
        <route edges="E10 E10.100 C1 C E E1.46 F H -E16 -E160 E1"/>
    </vehicle>
    <vehicle id="231" depart="508.20">
        <route edges="E10 E10.100 C1 C E E1.46 F H -E16 -E160 -E160.47 -E160.69"/>
    </vehicle>
    <vehicle id="232" depart="510.40">
        <route edges="E11 E26 -E100"/>
    </vehicle>
    <vehicle id="233" depart="512.60">
        <route edges="E10 E10.100 C1 C E E1.46 F H -E16 -E160 -E160.47 E0"/>
    </vehicle>
    <vehicle id="234" depart="514.80">
        <route edges="E31 E35 D E1.46 F H -E16 -E160 E1"/>
    </vehicle>
    <vehicle id="235" depart="517.00">
        <route edges="-E00 E160 E1600 I K E30 E30.34 E3.498"/>
    </vehicle>
    <vehicle id="236" depart="519.20">
        <route edges="E11 E11.100 E25 A E E1.46 F E30 E30.34 E3.498"/>
    </vehicle>
    <vehicle id="237" depart="521.40">
        <route edges="E16 E160 E1600 I K -E20 L B -E0 -E0.30 -E10 -E100"/>
    </vehicle>
    <vehicle id="240" depart="528.00">
        <route edges="E12 C1 C E E1.46 F H -E16 -E160 E1"/>
    </vehicle>
    <vehicle id="241" depart="530.20">
        <route edges="E14 G K -E20 L B E9"/>
    </vehicle>
    <vehicle id="242" depart="532.40">
        <route edges="E31 E35 D B E9"/>
    </vehicle>
    <vehicle id="243" depart="534.60">
        <route edges="E12 C1 C E E34 E34.31 E33"/>
    </vehicle>
    <vehicle id="245" depart="539.00">
        <route edges="E31 E35 D E1.46 F E30 E30.34 E3.498"/>
    </vehicle>
    <vehicle id="246" depart="541.20">
        <route edges="E16 E160 E1600 I K E30 E30.34 E3.498"/>
    </vehicle>
    <vehicle id="247" depart="543.40">
        <route edges="E16 E0"/>
    </vehicle>
    <vehicle id="248" depart="545.60">
        <route edges="E7 A E9"/>
    </vehicle>
    <vehicle id="249" depart="547.80">
        <route edges="E31 E35 D E1.46 F E30 E30.34 E3.498"/>
    </vehicle>
    <vehicle id="250" depart="550.00">
        <route edges="E11 E26 E10.100 -E12"/>
    </vehicle>
    <vehicle id="251" depart="552.20">
        <route edges="E14 G K -E20 L B -E0 -E0.30 -E10 -E100"/>
    </vehicle>
    <vehicle id="252" depart="554.40">
        <route edges="E11 E11.100 E25 A E E1.46 F H -E16 -E160 -E160.47 -E160.69"/>
    </vehicle>
    <vehicle id="253" depart="556.60">
        <route edges="E12 -E10 -E100"/>
    </vehicle>
    <vehicle id="256" depart="563.20">
        <route edges="E7 A E9"/>
    </vehicle>
    <vehicle id="257" depart="565.40">
        <route edges="E7 A E E1.46 F H E15"/>
    </vehicle>
    <vehicle id="258" depart="567.60">
        <route edges="E12 C1 C E E1.46 F H E15"/>
    </vehicle>
    <vehicle id="259" depart="569.80">
        <route edges="-E00 -E160.69"/>
    </vehicle>
    <vehicle id="260" depart="572.00">
        <route edges="E14 G K -E20 L B -E0 -E0.30 -E12"/>
    </vehicle>
    <vehicle id="261" depart="574.20">
        <route edges="E31 E35 D E1.46 F H E15"/>
    </vehicle>
    <vehicle id="262" depart="576.40">
        <route edges="E7 A E9"/>
    </vehicle>
    <vehicle id="263" depart="578.60">
        <route edges="E3 E3.300 E3.498"/>
    </vehicle>
    <vehicle id="265" depart="583.00">
        <route edges="E12 C1 C E E1.46 F E30 E30.34 E3.498"/>
    </vehicle>
    <vehicle id="266" depart="585.20">
        <route edges="-E00 E160 E1600 I K -E20 L B E9"/>
    </vehicle>
    <vehicle id="268" depart="589.60">
        <route edges="E11 E11.100 E25 A E E1.46 F E30 E30.34 E3.498"/>
    </vehicle>
    <vehicle id="269" depart="591.80">
        <route edges="E10 E10.100 C1 C E E1.46 F H -E16 -E160 -E160.47 -E160.69"/>
    </vehicle>
    <vehicle id="270" depart="594.00">
        <route edges="E10 E10.100 C1 C E E1.46 F H -E16 -E160 -E160.47 E0"/>
    </vehicle>
    <vehicle id="271" depart="596.20">
        <route edges="E10 E10.100 C1 C E E34 E34.31 E33"/>
    </vehicle>
    <vehicle id="272" depart="598.40">
        <route edges="E10 E10.100 C1 C E E1.46 F H -E16 -E160 -E160.47 -E160.69"/>
    </vehicle>
    <vehicle id="273" depart="600.60">
        <route edges="E12 -E10 -E100"/>
    </vehicle>
    <vehicle id="274" depart="602.80">
        <route edges="E12 -E10 -E100"/>
    </vehicle>
    <vehicle id="275" depart="605.00">
        <route edges="E14 G -E16 -E160 -E160.47 E0"/>
    </vehicle>
    <vehicle id="276" depart="607.20">
        <route edges="E14 G K -E20 L B -E0 -E0.30 -E12"/>
    </vehicle>
    <vehicle id="277" depart="609.40">
        <route edges="E31 E35 D E1.46 F H E15"/>
    </vehicle>
    <vehicle id="278" depart="611.60">
        <route edges="E11 E11.100 E25 A E E1.46 F H E15"/>
    </vehicle>
    <vehicle id="279" depart="613.80">
        <route edges="E31 E35 D E1.46 F H -E16 -E160 E1"/>
    </vehicle>
    <vehicle id="280" depart="616.00">
        <route edges="E31 E32 E33"/>
    </vehicle>
    <vehicle id="281" depart="618.20">
        <route edges="E14 G K -E20 L B E9"/>
    </vehicle>
    <vehicle id="282" depart="620.40">
        <route edges="E31 E35 D B -E0 -E0.30 -E10 -E100"/>
    </vehicle>
    <vehicle id="283" depart="622.60">
        <route edges="E31 E35 D B E9"/>
    </vehicle>
    <vehicle id="284" depart="624.80">
        <route edges="E7 A E9"/>
    </vehicle>
    <vehicle id="285" depart="627.00">
        <route edges="E11 E26 E10.100 -E12"/>
    </vehicle>
    <vehicle id="286" depart="629.20">
        <route edges="E11 E26 -E100"/>
    </vehicle>
    <vehicle id="287" depart="631.40">
        <route edges="-E00 E160 E1600 I K -E20 L E34 E34.31 E33"/>
    </vehicle>
    <vehicle id="289" depart="635.80">
        <route edges="E11 E11.100 E25 A E E34 E34.31 E33"/>
    </vehicle>
    <vehicle id="290" depart="638.00">
        <route edges="E12 -E10 -E100"/>
    </vehicle>
    <vehicle id="291" depart="640.20">
        <route edges="E14 G K -E20 L B -E0 -E0.30 -E10 -E100"/>
    </vehicle>
    <vehicle id="293" depart="644.60">
        <route edges="-E00 E160 E1600 I K E30 E30.34 E3.498"/>
    </vehicle>
    <vehicle id="296" depart="651.20">
        <route edges="E31 E35 D B -E0 -E0.30 -E10 -E100"/>
    </vehicle>
    <vehicle id="297" depart="653.40">
        <route edges="E31 E35 D E1.46 F H -E16 -E160 -E160.47 E0"/>
    </vehicle>
    <vehicle id="298" depart="655.60">
        <route edges="E11 E11.100 E25 A E E34 E34.31 E33"/>
    </vehicle>
    <vehicle id="299" depart="657.80">
        <route edges="-E00 E160 E1600 I E15"/>
    </vehicle>
    <vehicle id="300" depart="660.00">
        <route edges="E12 C1 C E E1.46 F H -E16 -E160 -E160.47 -E160.69"/>
    </vehicle>
    <vehicle id="301" depart="662.20">
        <route edges="E31 E35 D E1.46 F H E15"/>
    </vehicle>
    <vehicle id="303" depart="666.60">
        <route edges="E10 E10.100 C1 C E E1.46 F H -E16 -E160 -E160.47 E0"/>
    </vehicle>
    <vehicle id="304" depart="668.80">
        <route edges="E11 E26 E10.100 -E12"/>
    </vehicle>
    <vehicle id="305" depart="671.00">
        <route edges="-E00 E160 E1600 I K -E20 L B -E0 -E0.30 -E12"/>
    </vehicle>
    <vehicle id="306" depart="673.20">
        <route edges="E11 E11.100 E25 A E E1.46 F H -E16 -E160 E1"/>
    </vehicle>
    <vehicle id="307" depart="675.40">
        <route edges="E10 E10.100 C1 C E E1.46 F H -E16 -E160 E1"/>
    </vehicle>
    <vehicle id="309" depart="679.80">
        <route edges="E16 E160 E1600 I E15"/>
    </vehicle>
    <vehicle id="310" depart="682.00">
        <route edges="E11 E11.100 E25 A E E1.46 F H -E16 -E160 -E160.47 E0"/>
    </vehicle>
    <vehicle id="312" depart="686.40">
        <route edges="E12 C1 C E E1.46 F H E15"/>
    </vehicle>
    <vehicle id="313" depart="688.60">
        <route edges="E31 E35 D B -E0 -E0.30 -E12"/>
    </vehicle>
    <vehicle id="315" depart="693.00">
        <route edges="E14 G -E16 -E160 -E160.47 E0"/>
    </vehicle>
    <vehicle id="316" depart="695.20">
        <route edges="-E00 -E160.69"/>
    </vehicle>
    <vehicle id="317" depart="697.40">
        <route edges="E16 E160 E1600 I E15"/>
    </vehicle>
    <vehicle id="318" depart="699.60">
        <route edges="E3 E3.300 E3.498"/>
    </vehicle>
    <vehicle id="319" depart="701.80">
        <route edges="E31 E35 D B -E0 -E0.30 -E12"/>
    </vehicle>
    <vehicle id="321" depart="706.20">
        <route edges="E31 E35 D E1.46 F H -E16 -E160 -E160.47 -E160.69"/>
    </vehicle>
    <vehicle id="322" depart="708.40">
        <route edges="E12 C1 C E E1.46 F H -E16 -E160 -E160.47 E0"/>
    </vehicle>
    <vehicle id="323" depart="710.60">
        <route edges="E16 E160 E1600 I K -E20 L E34 E34.31 E33"/>
    </vehicle>
    <vehicle id="324" depart="712.80">
        <route edges="E11 E11.100 E25 A E E1.46 F H E15"/>
    </vehicle>
    <vehicle id="325" depart="715.00">
        <route edges="E14 G K -E20 L B -E0 -E0.30 -E10 -E100"/>
    </vehicle>
    <vehicle id="327" depart="719.40">
        <route edges="E7 A E E1.46 F H E15"/>
    </vehicle>
    <vehicle id="328" depart="721.60">
        <route edges="E14 G K -E20 L B -E0 -E0.30 -E10 -E100"/>
    </vehicle>
    <vehicle id="329" depart="723.80">
        <route edges="E31 E35 D B E9"/>
    </vehicle>
    <vehicle id="331" depart="728.20">