<?xml version="1.0" encoding="UTF-8"?>

<!-- generated on 2024-04-13 21:20:48 by Eclipse SUMO netedit Version 1.18.0
<configuration xmlns:xsi="http://www.w3.org/2001/XMLSchema-instance" xsi:noNamespaceSchemaLocation="http://sumo.dlr.de/xsd/neteditConfiguration.xsd">

    <input>
        <sumo-net-file value="D:\Repositorios_GitHub\Tesis-Implementacion\SUMO\MapaDe0\red.net.xml"/>
    </input>

    <output>
        <output-file value="D:\Repositorios_GitHub\Tesis-Implementacion\SUMO\MapaDe0\red.net.xml"/>
    </output>

    <processing>
        <geometry.min-radius.fix.railways value="false"/>
        <geometry.max-grade.fix value="false"/>
        <offset.disable-normalization value="true"/>
        <lefthand value="0"/>
    </processing>

    <junctions>
        <no-turnarounds value="true"/>
        <junctions.corner-detail value="5"/>
        <junctions.limit-turn-speed value="5.50"/>
        <rectangular-lane-cut value="0"/>
    </junctions>

    <pedestrian>
        <walkingareas value="0"/>
    </pedestrian>

</configuration>
-->

<net version="1.16" junctionCornerDetail="5" limitTurnSpeed="5.50" xmlns:xsi="http://www.w3.org/2001/XMLSchema-instance" xsi:noNamespaceSchemaLocation="http://sumo.dlr.de/xsd/net_file.xsd">

    <location netOffset="0.00,0.00" convBoundary="-400.35,-400.00,401.18,400.00" origBoundary="-10000000000.00,-10000000000.00,10000000000.00,10000000000.00" projParameter="!"/>

    <edge id=":J0_0" function="internal">
        <lane id=":J0_0_0" index="0" speed="13.89" length="14.35" shape="-1.60,207.20 -1.64,192.85"/>
    </edge>
    <edge id=":J0_1" function="internal">
        <lane id=":J0_1_0" index="0" speed="8.67" length="3.70" shape="-1.60,207.20 -0.89,203.57"/>
    </edge>
    <edge id=":J0_6" function="internal">
        <lane id=":J0_6_0" index="0" speed="8.67" length="13.14" shape="-0.89,203.57 -0.85,203.35 1.40,200.60 5.14,198.95 10.38,198.40"/>
    </edge>
    <edge id=":J0_2" function="internal">
        <lane id=":J0_2_0" index="0" speed="7.32" length="11.71" shape="10.38,201.60 6.54,201.95 3.80,203.00 2.15,204.75 1.60,207.20"/>
    </edge>
    <edge id=":J0_3" function="internal">
        <lane id=":J0_3_0" index="0" speed="8.68" length="16.82" shape="10.38,201.60 5.14,201.05 1.39,199.41 -0.87,196.68 -1.64,192.85"/>
    </edge>
    <edge id=":J0_4" function="internal">
        <lane id=":J0_4_0" index="0" speed="6.52" length="9.03" shape="4.76,192.81 5.12,195.26 6.18,197.00 7.93,198.05 10.38,198.40"/>
    </edge>
    <edge id=":J0_5" function="internal">
        <lane id=":J0_5_0" index="0" speed="13.89" length="14.37" shape="1.56,192.83 1.60,207.20"/>
    </edge>
    <edge id=":J1_0" function="internal">
        <lane id=":J1_0_0" index="0" speed="6.52" length="9.03" shape="5.19,84.09 5.54,86.53 6.60,88.27 8.35,89.32 10.80,89.68"/>
        <lane id=":J1_0_1" index="1" speed="7.33" length="11.71" shape="5.19,84.09 5.54,87.93 6.59,90.67 8.34,92.32 10.79,92.88"/>
    </edge>
    <edge id=":J1_2" function="internal">
        <lane id=":J1_2_0" index="0" speed="13.89" length="14.43" shape="5.19,84.09 5.15,98.54"/>
        <lane id=":J1_2_1" index="1" speed="13.89" length="14.43" shape="1.99,84.09 1.95,98.50"/>
    </edge>
    <edge id=":J1_4" function="internal">
        <lane id=":J1_4_0" index="0" speed="6.52" length="9.01" shape="-9.97,89.72 -7.54,89.35 -5.80,88.29 -4.75,86.54 -4.41,84.09"/>
    </edge>
    <edge id=":J1_5" function="internal">
        <lane id=":J1_5_0" index="0" speed="13.89" length="20.77" shape="-9.97,89.72 10.80,89.68"/>
    </edge>
    <edge id=":J1_6" function="internal">
        <lane id=":J1_6_0" index="0" speed="8.01" length="4.01" shape="-9.95,92.92 -6.12,92.34 -6.00,92.27"/>
    </edge>
    <edge id=":J1_7" function="internal">
        <lane id=":J1_7_0" index="0" speed="13.89" length="20.73" shape="-9.95,92.92 10.79,92.88"/>
    </edge>
    <edge id=":J1_8" function="internal">
        <lane id=":J1_8_0" index="0" speed="8.03" length="14.52" shape="-9.95,92.92 -4.72,93.24 -0.99,94.27 1.23,96.03 1.95,98.50"/>
    </edge>
    <edge id=":J1_11" function="internal">
        <lane id=":J1_11_0" index="0" speed="8.01" length="10.14" shape="-6.00,92.27 -3.39,90.68 -1.75,87.93 -1.21,84.09"/>
    </edge>
    <edge id=":J1_9" function="internal">
        <lane id=":J1_9_0" index="0" speed="13.89" length="14.59" shape="-1.25,98.47 -1.72,95.14 -2.80,92.16 -3.90,88.74 -4.41,84.09"/>
        <lane id=":J1_9_1" index="1" speed="13.89" length="14.59" shape="-1.25,98.47 -1.21,84.09"/>
    </edge>
    <edge id=":J14_0" function="internal">
        <lane id=":J14_0_0" index="0" speed="13.89" length="0.34" shape="-1.88,153.22 -1.88,152.88"/>
    </edge>
    <edge id=":J14_1" function="internal">
        <lane id=":J14_1_0" index="0" speed="13.89" length="0.26" shape="4.52,152.95 4.52,153.18"/>
        <lane id=":J14_1_1" index="1" speed="13.89" length="0.26" shape="1.32,152.91 1.32,153.20"/>
    </edge>
    <edge id=":J19_0" function="internal">
        <lane id=":J19_0_0" index="0" speed="13.89" length="14.40" shape="-4.80,-192.80 -4.80,-207.20"/>
        <lane id=":J19_0_1" index="1" speed="13.89" length="14.40" shape="-1.60,-192.80 -1.60,-207.20"/>
    </edge>
    <edge id=":J19_2" function="internal">
        <lane id=":J19_2_0" index="0" speed="8.67" length="3.71" shape="-1.60,-192.80 -0.89,-196.44"/>
    </edge>
    <edge id=":J19_8" function="internal">
        <lane id=":J19_8_0" index="0" speed="8.67" length="13.14" shape="-0.89,-196.44 -0.85,-196.65 1.40,-199.40 5.15,-201.05 10.40,-201.60"/>
    </edge>
    <edge id=":J19_3" function="internal">
        <lane id=":J19_3_0" index="0" speed="6.51" length="9.03" shape="10.40,-198.40 7.95,-198.05 6.20,-197.00 5.15,-195.25 4.80,-192.80"/>
    </edge>
    <edge id=":J19_4" function="internal">
        <lane id=":J19_4_0" index="0" speed="8.67" length="16.85" shape="10.40,-198.40 5.15,-198.95 1.40,-200.60 -0.85,-203.35 -1.60,-207.20"/>
    </edge>
    <edge id=":J19_5" function="internal">
        <lane id=":J19_5_0" index="0" speed="6.51" length="9.03" shape="4.80,-207.20 5.15,-204.75 6.20,-203.00 7.95,-201.95 10.40,-201.60"/>
    </edge>
    <edge id=":J19_6" function="internal">
        <lane id=":J19_6_0" index="0" speed="13.89" length="14.40" shape="4.80,-207.20 4.80,-192.80"/>
        <lane id=":J19_6_1" index="1" speed="13.89" length="14.40" shape="1.60,-207.20 1.60,-192.80"/>
    </edge>
    <edge id=":J2_0" function="internal">
        <lane id=":J2_0_0" index="0" speed="13.89" length="0.32" shape="-5.00,3.17 -5.00,2.83"/>
        <lane id=":J2_0_1" index="1" speed="13.89" length="0.32" shape="-1.80,3.12 -1.80,2.81"/>
    </edge>
    <edge id=":J2_2" function="internal">
        <lane id=":J2_2_0" index="0" speed="13.89" length="0.27" shape="4.60,2.77 4.60,3.03"/>
        <lane id=":J2_2_1" index="1" speed="13.89" length="0.27" shape="1.40,2.79 1.40,3.08"/>
    </edge>
    <edge id=":J21_0" function="internal">
        <lane id=":J21_0_0" index="0" speed="13.89" length="8.32" shape="4.80,-185.08 4.78,-176.74"/>
        <lane id=":J21_0_1" index="1" speed="13.89" length="8.32" shape="1.60,-185.08 1.58,-176.78"/>
    </edge>
    <edge id=":J21_2" function="internal">
        <lane id=":J21_2_0" index="0" speed="7.81" length="7.58" shape="-4.82,-176.85 -5.08,-178.37 -5.87,-179.86 -7.22,-181.32 -9.10,-182.76"/>
    </edge>
    <edge id=":J21_3" function="internal">
        <lane id=":J21_3_0" index="0" speed="13.89" length="8.24" shape="-4.82,-176.85 -4.80,-185.08"/>
        <lane id=":J21_3_1" index="1" speed="13.89" length="8.24" shape="-1.62,-176.82 -1.60,-185.08"/>
    </edge>
    <edge id=":J25_0" function="internal">
        <lane id=":J25_0_0" index="0" speed="13.89" length="21.58" shape="107.60,-16.08 112.83,-12.88 116.51,-10.45 120.44,-8.89 126.45,-8.34"/>
        <lane id=":J25_0_1" index="1" speed="13.89" length="21.58" shape="106.08,-13.26 111.44,-10.00 115.46,-7.44 119.88,-5.75 126.44,-5.14"/>
    </edge>
    <edge id=":J25_2" function="internal">
        <lane id=":J25_2_0" index="0" speed="13.89" length="21.59" shape="104.85,-8.37 126.45,-8.34"/>
        <lane id=":J25_2_1" index="1" speed="13.89" length="21.59" shape="104.85,-5.17 126.44,-5.14"/>
        <lane id=":J25_2_2" index="2" speed="13.89" length="21.59" shape="104.85,-1.97 126.44,-1.94"/>
    </edge>
    <edge id=":J26_0" function="internal">
        <lane id=":J26_0_0" index="0" speed="7.33" length="11.70" shape="-102.04,99.24 -101.71,95.40 -100.68,92.65 -98.95,90.99 -96.51,90.42"/>
        <lane id=":J26_0_1" index="1" speed="6.51" length="9.01" shape="-102.04,99.24 -101.70,96.80 -100.67,95.05 -98.93,93.99 -96.49,93.62"/>
    </edge>
    <edge id=":J26_2" function="internal">
        <lane id=":J26_2_0" index="0" speed="13.89" length="11.14" shape="-107.64,90.44 -96.51,90.42"/>
        <lane id=":J26_2_1" index="1" speed="13.89" length="11.14" shape="-107.64,93.64 -96.49,93.62"/>
    </edge>
    <edge id=":J27_0" function="internal">
        <lane id=":J27_0_0" index="0" speed="13.89" length="11.20" shape="-101.60,304.00 -101.60,292.80"/>
    </edge>
    <edge id=":J27_1" function="internal">
        <lane id=":J27_1_0" index="0" speed="6.51" length="9.03" shape="-101.60,304.00 -101.25,301.55 -100.20,299.80 -98.45,298.75 -96.00,298.40"/>
    </edge>
    <edge id=":J28_0" function="internal">
        <lane id=":J28_0_0" index="0" speed="13.89" length="11.20" shape="-1.60,304.00 -1.60,292.80"/>
    </edge>
    <edge id=":J28_1" function="internal">
        <lane id=":J28_1_0" index="0" speed="13.89" length="11.20" shape="1.60,292.80 1.60,304.00"/>
    </edge>
    <edge id=":J28_2" function="internal">
        <lane id=":J28_2_0" index="0" speed="6.51" length="9.03" shape="-7.20,298.40 -4.75,298.05 -3.00,297.00 -1.95,295.25 -1.60,292.80"/>
    </edge>
    <edge id=":J28_3" function="internal">
        <lane id=":J28_3_0" index="0" speed="7.33" length="11.73" shape="-7.20,298.40 -3.35,298.75 -0.60,299.80 1.05,301.55 1.60,304.00"/>
    </edge>
    <edge id=":J29_0" function="internal">
        <lane id=":J29_0_0" index="0" speed="13.89" length="20.24" shape="-126.37,-8.65 -120.56,-9.19 -116.79,-10.71 -113.24,-13.13 -108.14,-16.37"/>
        <lane id=":J29_0_1" index="1" speed="13.89" length="20.78" shape="-126.37,-8.65 -120.21,-8.74 -115.93,-9.29 -111.92,-10.75 -106.58,-13.58"/>
    </edge>
    <edge id=":J29_2" function="internal">
        <lane id=":J29_2_0" index="0" speed="13.89" length="21.06" shape="-126.37,-8.65 -105.30,-8.62"/>
        <lane id=":J29_2_1" index="1" speed="13.89" length="21.06" shape="-126.36,-5.45 -105.30,-5.42"/>
        <lane id=":J29_2_2" index="2" speed="13.89" length="21.06" shape="-126.35,-2.25 -105.31,-2.22"/>
    </edge>
    <edge id=":J3_0" function="internal">
        <lane id=":J3_0_0" index="0" speed="6.51" length="9.03" shape="-5.24,-78.36 -5.59,-80.81 -6.64,-82.56 -8.39,-83.61 -10.84,-83.96"/>
    </edge>
    <edge id=":J3_1" function="internal">
        <lane id=":J3_1_0" index="0" speed="13.89" length="14.48" shape="-5.24,-78.36 -5.24,-92.84"/>
        <lane id=":J3_1_1" index="1" speed="13.89" length="14.48" shape="-2.04,-78.36 -2.04,-92.84"/>
    </edge>
    <edge id=":J3_3" function="internal">
        <lane id=":J3_3_0" index="0" speed="6.58" length="9.17" shape="10.02,-84.10 7.55,-83.71 5.77,-82.63 4.71,-80.84 4.36,-78.36"/>
    </edge>
    <edge id=":J3_4" function="internal">
        <lane id=":J3_4_0" index="0" speed="13.89" length="20.84" shape="10.02,-84.10 -10.84,-83.96"/>
        <lane id=":J3_4_1" index="1" speed="13.89" length="20.84" shape="9.98,-87.30 -10.84,-87.16"/>
    </edge>
    <edge id=":J3_6" function="internal">
        <lane id=":J3_6_0" index="0" speed="8.07" length="14.61" shape="9.98,-87.30 4.72,-87.59 0.97,-88.61 -1.29,-90.36 -2.04,-92.84"/>
    </edge>
    <edge id=":J3_7" function="internal">
        <lane id=":J3_7_0" index="0" speed="13.89" length="14.49" shape="4.36,-92.85 4.36,-78.36"/>
        <lane id=":J3_7_1" index="1" speed="13.89" length="14.49" shape="1.16,-92.84 1.16,-78.36"/>
    </edge>
    <edge id=":J3_9" function="internal">
        <lane id=":J3_9_0" index="0" speed="8.11" length="2.40" shape="1.16,-92.84 0.47,-90.54"/>
    </edge>
    <edge id=":J3_10" function="internal">
        <lane id=":J3_10_0" index="0" speed="8.11" length="12.22" shape="0.47,-90.54 0.41,-90.36 -1.84,-88.58 -5.59,-87.52 -10.84,-87.16"/>
    </edge>
    <edge id=":J30_0" function="internal">
        <lane id=":J30_0_0" index="0" speed="6.51" length="9.04" shape="-4.43,55.26 -4.78,52.82 -5.84,51.07 -7.59,50.02 -10.05,49.67"/>
    </edge>
    <edge id=":J30_1" function="internal">
        <lane id=":J30_1_0" index="0" speed="13.89" length="17.74" shape="-4.43,55.26 -4.50,37.67"/>
        <lane id=":J30_1_1" index="1" speed="13.89" length="17.74" shape="-1.23,55.26 -1.73,50.00 -2.82,46.46 -3.93,42.93 -4.50,37.67"/>
        <lane id=":J30_1_2" index="2" speed="13.89" length="17.74" shape="-1.23,55.26 -1.30,37.62"/>
    </edge>
    <edge id=":J30_4" function="internal">
        <lane id=":J30_4_0" index="0" speed="6.61" length="9.22" shape="10.89,49.50 8.39,49.90 6.60,50.99 5.53,52.78 5.17,55.26"/>
        <lane id=":J30_4_1" index="1" speed="7.42" length="11.89" shape="10.89,49.50 6.99,49.92 4.20,51.02 2.53,52.80 1.97,55.26"/>
    </edge>
    <edge id=":J30_6" function="internal">
        <lane id=":J30_6_0" index="0" speed="9.32" length="19.69" shape="10.83,46.30 4.17,45.87 -0.60,44.28 -3.49,41.55 -4.50,37.67"/>
        <lane id=":J30_6_1" index="1" speed="8.10" length="14.62" shape="10.78,43.10 5.52,42.84 1.76,41.84 -0.51,40.10 -1.30,37.62"/>
    </edge>
    <edge id=":J30_8" function="internal">
        <lane id=":J30_8_0" index="0" speed="13.89" length="17.73" shape="5.10,37.53 5.17,55.26"/>
    </edge>
    <edge id=":J30_9" function="internal">
        <lane id=":J30_9_0" index="0" speed="9.29" length="7.87" shape="5.10,37.53 4.20,41.45 1.47,44.16"/>
    </edge>
    <edge id=":J30_10" function="internal">
        <lane id=":J30_10_0" index="0" speed="13.89" length="17.69" shape="1.90,37.57 1.97,55.26"/>
    </edge>
    <edge id=":J30_11" function="internal">
        <lane id=":J30_11_0" index="0" speed="8.06" length="2.43" shape="1.90,37.57 1.23,39.91"/>
    </edge>
    <edge id=":J30_12" function="internal">
        <lane id=":J30_12_0" index="0" speed="9.29" length="11.85" shape="1.47,44.16 1.38,44.25 -3.37,45.92 -10.04,46.47"/>
    </edge>
    <edge id=":J30_13" function="internal">
        <lane id=":J30_13_0" index="0" speed="8.06" length="12.18" shape="1.23,39.91 1.19,40.07 -1.04,41.86 -4.78,42.92 -10.03,43.27"/>
    </edge>
    <edge id=":J31_0" function="internal">
        <lane id=":J31_0_0" index="0" speed="13.89" length="17.68" shape="-5.23,-34.18 -5.25,-51.86"/>
    </edge>
    <edge id=":J31_1" function="internal">
        <lane id=":J31_1_0" index="0" speed="9.31" length="7.81" shape="-5.23,-34.18 -4.31,-38.06 -1.57,-40.73"/>
    </edge>
    <edge id=":J31_2" function="internal">
        <lane id=":J31_2_0" index="0" speed="13.89" length="17.65" shape="-2.03,-34.20 -2.05,-51.86"/>
    </edge>
    <edge id=":J31_3" function="internal">
        <lane id=":J31_3_0" index="0" speed="8.09" length="2.39" shape="-2.03,-34.20 -1.35,-36.50"/>
    </edge>
    <edge id=":J31_12" function="internal">
        <lane id=":J31_12_0" index="0" speed="9.31" length="11.87" shape="-1.57,-40.73 -1.47,-40.83 3.28,-42.50 9.95,-43.06"/>
    </edge>
    <edge id=":J31_13" function="internal">
        <lane id=":J31_13_0" index="0" speed="8.09" length="12.20" shape="-1.35,-36.50 -1.30,-36.67 0.94,-38.44 4.69,-39.50 9.95,-39.86"/>
    </edge>
    <edge id=":J31_4" function="internal">
        <lane id=":J31_4_0" index="0" speed="6.51" length="9.03" shape="4.35,-51.86 4.69,-49.40 5.74,-47.65 7.49,-46.61 9.94,-46.26"/>
    </edge>
    <edge id=":J31_5" function="internal">
        <lane id=":J31_5_0" index="0" speed="13.89" length="17.75" shape="4.35,-51.86 4.37,-34.24"/>
        <lane id=":J31_5_1" index="1" speed="13.89" length="17.75" shape="1.15,-51.86 1.64,-46.59 2.73,-43.05 3.84,-39.51 4.37,-34.24"/>
        <lane id=":J31_5_2" index="2" speed="13.89" length="17.75" shape="1.15,-51.86 1.17,-34.22"/>
    </edge>
    <edge id=":J31_8" function="internal">
        <lane id=":J31_8_0" index="0" speed="6.54" length="9.09" shape="-10.89,-46.21 -8.43,-46.57 -6.66,-47.63 -5.61,-49.40 -5.25,-51.86"/>
        <lane id=":J31_8_1" index="1" speed="7.35" length="11.78" shape="-10.89,-46.21 -7.03,-46.58 -4.26,-47.64 -2.61,-49.40 -2.05,-51.86"/>
    </edge>
    <edge id=":J31_10" function="internal">
        <lane id=":J31_10_0" index="0" speed="9.33" length="19.65" shape="-10.88,-43.01 -4.23,-42.48 0.53,-40.85 3.39,-38.10 4.37,-34.24"/>
        <lane id=":J31_10_1" index="1" speed="8.11" length="14.59" shape="-10.87,-39.81 -5.62,-39.48 -1.86,-38.44 0.40,-36.69 1.17,-34.22"/>
    </edge>
    <edge id=":J33_0" function="internal">
        <lane id=":J33_0_0" index="0" speed="13.89" length="23.21" shape="126.32,15.95 119.42,16.59 114.70,18.28 110.41,20.72 104.80,23.64"/>
        <lane id=":J33_0_1" index="1" speed="13.89" length="23.59" shape="126.32,15.95 119.12,16.14 113.96,16.82 109.27,18.25 103.49,20.71"/>
    </edge>
    <edge id=":J33_2" function="internal">
        <lane id=":J33_2_0" index="0" speed="13.89" length="23.84" shape="126.32,15.95 102.49,16.04"/>
        <lane id=":J33_2_1" index="1" speed="13.89" length="23.84" shape="126.32,12.75 102.48,12.84"/>
        <lane id=":J33_2_2" index="2" speed="13.89" length="23.84" shape="126.31,9.55 102.47,9.64"/>
    </edge>
    <edge id=":J34_0" function="internal">
        <lane id=":J34_0_0" index="0" speed="13.89" length="22.74" shape="-106.55,24.38 -112.01,21.40 -116.03,19.01 -120.39,17.41 -126.87,16.81"/>
        <lane id=":J34_0_1" index="1" speed="13.89" length="22.74" shape="-105.18,21.49 -110.76,18.46 -115.08,15.97 -119.87,14.26 -126.85,13.61"/>
    </edge>
    <edge id=":J34_2" function="internal">
        <lane id=":J34_2_0" index="0" speed="13.89" length="22.73" shape="-104.12,16.72 -126.87,16.81"/>
        <lane id=":J34_2_1" index="1" speed="13.89" length="22.73" shape="-104.13,13.52 -126.85,13.61"/>
        <lane id=":J34_2_2" index="2" speed="13.89" length="22.73" shape="-104.14,10.32 -126.84,10.41"/>
    </edge>
    <edge id=":J36_0" function="internal">
        <lane id=":J36_0_0" index="0" speed="13.89" length="10.21" shape="51.93,-46.29 55.15,-45.78 57.08,-44.46 58.89,-42.64 61.73,-40.63"/>
        <lane id=":J36_0_1" index="1" speed="13.89" length="10.21" shape="51.94,-43.09 54.97,-43.04 57.06,-42.76 59.03,-42.02 61.73,-40.63"/>
        <lane id=":J36_0_2" index="2" speed="13.89" length="10.21" shape="51.94,-39.89 54.50,-39.85 56.27,-39.61 57.94,-38.99 60.22,-37.81"/>
    </edge>
    <edge id=":J37_0" function="internal">
        <lane id=":J37_0_0" index="0" speed="13.89" length="10.01" shape="-55.02,49.58 -58.15,49.07 -60.04,47.77 -61.83,46.03 -64.67,44.20"/>
        <lane id=":J37_0_1" index="1" speed="13.89" length="10.01" shape="-55.01,46.38 -57.98,46.33 -60.02,46.08 -61.97,45.43 -64.67,44.20"/>
        <lane id=":J37_0_2" index="2" speed="13.89" length="10.01" shape="-55.00,43.18 -57.55,43.14 -59.30,42.92 -60.98,42.36 -63.30,41.31"/>
    </edge>
    <edge id=":J38_0" function="internal">
        <lane id=":J38_0_0" index="0" speed="13.89" length="9.87" shape="60.34,43.47 57.53,45.22 55.78,46.92 53.94,48.23 50.87,48.79"/>
        <lane id=":J38_0_1" index="1" speed="13.89" length="9.87" shape="59.03,40.55 56.57,42.16 55.08,43.78 53.51,45.04 50.82,45.59"/>
        <lane id=":J38_0_2" index="2" speed="13.89" length="9.87" shape="59.03,40.55 56.70,41.56 55.03,42.09 53.30,42.31 50.76,42.39"/>
    </edge>
    <edge id=":J39_0" function="internal">
        <lane id=":J39_0_0" index="0" speed="13.89" length="10.20" shape="-65.33,-40.26 -62.51,-42.33 -60.70,-44.18 -58.76,-45.51 -55.53,-46.04"/>
        <lane id=":J39_0_1" index="1" speed="13.89" length="10.20" shape="-63.77,-37.47 -61.36,-39.32 -59.88,-41.04 -58.28,-42.33 -55.52,-42.84"/>
        <lane id=":J39_0_2" index="2" speed="13.89" length="10.20" shape="-63.77,-37.47 -61.51,-38.68 -59.84,-39.33 -58.08,-39.58 -55.51,-39.64"/>
    </edge>
    <edge id=":J6_0" function="internal">
        <lane id=":J6_0_0" index="0" speed="13.89" length="0.33" shape="-5.25,-140.24 -5.25,-140.59"/>
        <lane id=":J6_0_1" index="1" speed="13.89" length="0.33" shape="-2.05,-140.24 -2.05,-140.56"/>
    </edge>
    <edge id=":J6_2" function="internal">
        <lane id=":J6_2_0" index="0" speed="13.89" length="0.25" shape="4.35,-140.48 4.35,-140.24"/>
        <lane id=":J6_2_1" index="1" speed="13.89" length="0.25" shape="1.15,-140.52 1.15,-140.24"/>
    </edge>
    <edge id=":J8_0" function="internal">
        <lane id=":J8_0_0" index="0" speed="13.89" length="0.30" shape="-101.60,200.15 -101.60,199.85"/>
    </edge>
    <edge id=":J9_0" function="internal">
        <lane id=":J9_0_0" index="0" speed="13.89" length="0.28" shape="67.51,-84.87 67.25,-84.87"/>
        <lane id=":J9_0_1" index="1" speed="13.89" length="0.28" shape="67.52,-88.07 67.21,-88.07"/>
    </edge>

    <edge id="-E0" from="J1" to="J14" priority="-1">
        <lane id="-E0_0" index="0" speed="13.89" length="54.41" shape="5.15,98.54 4.52,152.95"/>
        <lane id="-E0_1" index="1" speed="13.89" length="54.41" shape="1.95,98.50 1.32,152.91"/>
    </edge>
    <edge id="-E0.30" from="J14" to="J0" priority="-1">
        <lane id="-E0.30_0" index="0" speed="13.89" length="39.63" shape="4.52,153.18 4.76,192.81"/>
        <lane id="-E0.30_1" index="1" speed="13.89" length="39.63" shape="1.32,153.20 1.56,192.83"/>
    </edge>
    <edge id="-E00" from="J20" to="J19" priority="-1">
        <lane id="-E00_0" index="0" speed="13.89" length="89.60" shape="100.00,-198.40 10.40,-198.40"/>
    </edge>
    <edge id="-E10" from="J0" to="J28" priority="-1">
        <lane id="-E10_0" index="0" speed="13.89" length="85.60" shape="1.60,207.20 1.60,292.80"/>
    </edge>
    <edge id="-E100" from="J28" to="J11" priority="-1">
        <lane id="-E100_0" index="0" speed="13.89" length="96.00" shape="1.60,304.00 1.60,400.00"/>
    </edge>
    <edge id="-E12" from="J0" to="J13" priority="-1">
        <lane id="-E12_0" index="0" speed="13.89" length="89.62" shape="10.38,198.40 100.00,198.40"/>
    </edge>
    <edge id="-E16" from="J3" to="J6" priority="-1">
        <lane id="-E16_0" index="0" speed="13.89" length="47.40" shape="-5.24,-92.84 -5.25,-140.24"/>
        <lane id="-E16_1" index="1" speed="13.89" length="47.40" shape="-2.04,-92.84 -2.05,-140.24"/>
    </edge>
    <edge id="-E160" from="J6" to="J21" priority="-1">
        <lane id="-E160_0" index="0" speed="13.89" length="36.26" shape="-5.25,-140.59 -4.82,-176.85"/>
        <lane id="-E160_1" index="1" speed="13.89" length="36.26" shape="-2.05,-140.56 -1.62,-176.82"/>
    </edge>
    <edge id="-E160.47" from="J21" to="J19" priority="-1">
        <lane id="-E160.47_0" index="0" speed="13.89" length="7.72" shape="-4.80,-185.08 -4.80,-192.80"/>
        <lane id="-E160.47_1" index="1" speed="13.89" length="7.72" shape="-1.60,-185.08 -1.60,-192.80"/>
    </edge>
    <edge id="-E160.69" from="J19" to="J18" priority="-1">
        <lane id="-E160.69_0" index="0" speed="13.89" length="192.80" shape="-4.80,-207.20 -4.80,-400.00"/>
        <lane id="-E160.69_1" index="1" speed="13.89" length="192.80" shape="-1.60,-207.20 -1.60,-400.00"/>
    </edge>
    <edge id="-E20" from="J31" to="J2" priority="-1">
        <lane id="-E20_0" index="0" speed="13.89" length="37.02" shape="4.37,-34.24 4.60,2.77"/>
        <lane id="-E20_1" index="1" speed="13.89" length="37.02" shape="1.17,-34.22 1.40,2.79"/>
    </edge>
    <edge id="A" from="J26" to="J1" priority="-1">
        <lane id="A_0" index="0" speed="13.89" length="86.54" shape="-96.51,90.42 -9.97,89.72"/>
        <lane id="A_1" index="1" speed="13.89" length="86.54" shape="-96.49,93.62 -9.95,92.92"/>
    </edge>
    <edge id="B" from="J30" to="J1" priority="-1">
        <lane id="B_0" index="0" speed="13.89" length="28.83" shape="5.17,55.26 5.19,84.09"/>
        <lane id="B_1" index="1" speed="13.89" length="28.83" shape="1.97,55.26 1.99,84.09"/>
    </edge>
    <edge id="C" from="J14" to="J1" priority="-1">
        <lane id="C_0" index="0" speed="13.89" length="54.41" shape="-1.88,152.88 -1.25,98.47"/>
    </edge>
    <edge id="C1" from="J0" to="J14" priority="-1">
        <lane id="C1_0" index="0" speed="13.89" length="39.63" shape="-1.64,192.85 -1.88,153.22"/>
    </edge>
    <edge id="D" from="J38" to="J30" priority="-1">
        <lane id="D_0" index="0" speed="13.89" length="39.99" shape="50.87,48.79 10.89,49.50"/>
        <lane id="D_1" index="1" speed="13.89" length="39.99" shape="50.82,45.59 10.83,46.30"/>
        <lane id="D_2" index="2" speed="13.89" length="39.99" shape="50.76,42.39 10.78,43.10"/>
    </edge>
    <edge id="E" from="J1" to="J30" priority="-1">
        <lane id="E_0" index="0" speed="13.89" length="28.83" shape="-4.41,84.09 -4.43,55.26"/>
        <lane id="E_1" index="1" speed="13.89" length="28.83" shape="-1.21,84.09 -1.23,55.26"/>
    </edge>
    <edge id="E0" from="J19" to="J20" priority="-1">
        <lane id="E0_0" index="0" speed="13.89" length="89.60" shape="10.40,-201.60 100.00,-201.60"/>
    </edge>
    <edge id="E1" from="J21" to="J22" priority="-1">
        <lane id="E1_0" index="0" speed="13.89" length="70.26" shape="-9.10,-182.76 -67.75,-221.44"/>
    </edge>
    <edge id="E1.46" from="J30" to="J2" priority="-1">
        <lane id="E1.46_0" index="0" speed="13.89" length="34.50" shape="-4.50,37.67 -5.00,3.17"/>
        <lane id="E1.46_1" index="1" speed="13.89" length="34.50" shape="-1.30,37.62 -1.80,3.12"/>
    </edge>
    <edge id="E10" from="J11" to="J28" priority="-1">
        <lane id="E10_0" index="0" speed="13.89" length="96.00" shape="-1.60,400.00 -1.60,304.00"/>
    </edge>
    <edge id="E10.100" from="J28" to="J0" priority="-1">
        <lane id="E10.100_0" index="0" speed="13.89" length="85.60" shape="-1.60,292.80 -1.60,207.20"/>
    </edge>
    <edge id="E11" from="J12" to="J27" priority="-1">
        <lane id="E11_0" index="0" speed="13.89" length="96.00" shape="-101.60,400.00 -101.60,304.00"/>
    </edge>
    <edge id="E11.100" from="J27" to="J8" priority="-1">
        <lane id="E11.100_0" index="0" speed="13.89" length="92.65" shape="-101.60,292.80 -101.60,200.15"/>
    </edge>
    <edge id="E12" from="J13" to="J0" priority="-1">
        <lane id="E12_0" index="0" speed="13.89" length="89.62" shape="100.00,201.60 10.38,201.60"/>
    </edge>
    <edge id="E14" from="J16" to="J9" priority="-1">
        <lane id="E14_0" index="0" speed="13.89" length="333.65" shape="401.15,-83.07 67.51,-84.87"/>
        <lane id="E14_1" index="1" speed="13.89" length="333.65" shape="401.17,-86.27 67.52,-88.07"/>
    </edge>
    <edge id="E15" from="J3" to="J17" priority="-1">
        <lane id="E15_0" index="0" speed="13.89" length="387.83" shape="-10.84,-83.96 -398.67,-84.05"/>
        <lane id="E15_1" index="1" speed="13.89" length="387.83" shape="-10.84,-87.16 -398.67,-87.25"/>
    </edge>
    <edge id="E16" from="J18" to="J19" priority="-1">
        <lane id="E16_0" index="0" speed="13.89" length="192.80" shape="4.80,-400.00 4.80,-207.20"/>
        <lane id="E16_1" index="1" speed="13.89" length="192.80" shape="1.60,-400.00 1.60,-207.20"/>
    </edge>
    <edge id="E160" from="J19" to="J21" priority="-1">
        <lane id="E160_0" index="0" speed="13.89" length="7.72" shape="4.80,-192.80 4.80,-185.08"/>
        <lane id="E160_1" index="1" speed="13.89" length="7.72" shape="1.60,-192.80 1.60,-185.08"/>
    </edge>
    <edge id="E1600" from="J21" to="J6" priority="-1">
        <lane id="E1600_0" index="0" speed="13.89" length="36.26" shape="4.78,-176.74 4.35,-140.48"/>
        <lane id="E1600_1" index="1" speed="13.89" length="36.26" shape="1.58,-176.78 1.15,-140.52"/>
    </edge>
    <edge id="E25" from="J8" to="J26" priority="-1">
        <lane id="E25_0" index="0" speed="13.89" length="100.61" shape="-101.60,199.85 -102.04,99.24"/>
    </edge>
    <edge id="E26" from="J27" to="J28" priority="-1">
        <lane id="E26_0" index="0" speed="13.89" length="88.80" shape="-96.00,298.40 -7.20,298.40"/>
    </edge>
    <edge id="E29" from="J29" to="J39" priority="-1">
        <lane id="E29_0" index="0" speed="13.89" length="49.03" shape="-108.14,-16.37 -65.33,-40.26"/>
        <lane id="E29_1" index="1" speed="13.89" length="49.03" shape="-106.58,-13.58 -63.77,-37.47"/>
    </edge>
    <edge id="E3" from="J4" to="J29" priority="-1">
        <lane id="E3_0" index="0" speed="13.89" length="273.65" shape="-400.02,-8.00 -126.37,-8.65"/>
        <lane id="E3_1" index="1" speed="13.89" length="273.65" shape="-400.01,-4.80 -126.36,-5.45"/>
        <lane id="E3_2" index="2" speed="13.89" length="273.65" shape="-400.00,-1.60 -126.35,-2.25"/>
    </edge>
    <edge id="E3.300" from="J29" to="J25" priority="-1">
        <lane id="E3.300_0" index="0" speed="13.89" length="210.15" shape="-105.30,-8.62 104.85,-8.37"/>
        <lane id="E3.300_1" index="1" speed="13.89" length="210.15" shape="-105.30,-5.42 104.85,-5.17"/>
        <lane id="E3.300_2" index="2" speed="13.89" length="210.15" shape="-105.31,-2.22 104.85,-1.97"/>
    </edge>
    <edge id="E3.498" from="J25" to="J5" priority="-1">
        <lane id="E3.498_0" index="0" speed="13.89" length="273.56" shape="126.45,-8.34 400.01,-8.00"/>
        <lane id="E3.498_1" index="1" speed="13.89" length="273.56" shape="126.44,-5.14 400.01,-4.80"/>
        <lane id="E3.498_2" index="2" speed="13.89" length="273.56" shape="126.44,-1.94 400.00,-1.60"/>
    </edge>
    <edge id="E30" from="J31" to="J36" priority="-1">
        <lane id="E30_0" index="0" speed="13.89" length="41.99" shape="9.94,-46.26 51.93,-46.29"/>