<?xml version="1.0" encoding="UTF-8"?>

<!-- generated on 2024-04-11 12:32:36 by Eclipse SUMO netedit Version 1.18.0
<configuration xmlns:xsi="http://www.w3.org/2001/XMLSchema-instance" xsi:noNamespaceSchemaLocation="http://sumo.dlr.de/xsd/neteditConfiguration.xsd">

    <input>
        <sumocfg-file value="D:\Repositorios_GitHub\Tesis-Implementacion\SUMO\MapaDe0\mapa.sumocfg"/>
        <route-files value="D:\Repositorios_GitHub\Tesis-Implementacion\SUMO\MapaDe0\routes.rou.xml"/>
        <sumo-net-file value="D:\Repositorios_GitHub\Tesis-Implementacion\SUMO\MapaDe0\red.net.xml"/>
    </input>

    <output>
        <output-file value="D:\Repositorios_GitHub\Tesis-Implementacion\SUMO\MapaDe0\red.net.xml"/>
    </output>

    <processing>
        <geometry.min-radius.fix.railways value="false"/>
        <geometry.max-grade.fix value="false"/>
        <offset.disable-normalization value="true"/>
        <lefthand value="0"/>
    </processing>

    <junctions>
        <no-turnarounds value="true"/>
        <junctions.corner-detail value="5"/>
        <junctions.limit-turn-speed value="5.50"/>
        <rectangular-lane-cut value="0"/>
    </junctions>

    <pedestrian>
        <walkingareas value="0"/>
    </pedestrian>

</configuration>
-->

<net version="1.16" junctionCornerDetail="5" limitTurnSpeed="5.50" xmlns:xsi="http://www.w3.org/2001/XMLSchema-instance" xsi:noNamespaceSchemaLocation="http://sumo.dlr.de/xsd/net_file.xsd">

    <location netOffset="0.00,0.00" convBoundary="-400.35,-400.00,400.00,400.00" origBoundary="-10000000000.00,-10000000000.00,10000000000.00,10000000000.00" projParameter="!"/>

    <edge id=":J0_0" function="internal">
        <lane id=":J0_0_0" index="0" speed="13.89" length="14.40" shape="-1.60,207.20 -1.60,192.80"/>
    </edge>
    <edge id=":J0_1" function="internal">
        <lane id=":J0_1_0" index="0" speed="8.67" length="3.71" shape="-1.60,207.20 -0.89,203.56"/>
    </edge>
    <edge id=":J0_6" function="internal">
        <lane id=":J0_6_0" index="0" speed="8.67" length="13.14" shape="-0.89,203.56 -0.85,203.35 1.40,200.60 5.15,198.95 10.40,198.40"/>
    </edge>
    <edge id=":J0_2" function="internal">
        <lane id=":J0_2_0" index="0" speed="7.33" length="11.73" shape="10.40,201.60 6.55,201.95 3.80,203.00 2.15,204.75 1.60,207.20"/>
    </edge>
    <edge id=":J0_3" function="internal">
        <lane id=":J0_3_0" index="0" speed="8.67" length="16.85" shape="10.40,201.60 5.15,201.05 1.40,199.40 -0.85,196.65 -1.60,192.80"/>
    </edge>
    <edge id=":J0_4" function="internal">
        <lane id=":J0_4_0" index="0" speed="6.51" length="9.03" shape="4.80,192.80 5.15,195.25 6.20,197.00 7.95,198.05 10.40,198.40"/>
    </edge>
    <edge id=":J0_5" function="internal">
        <lane id=":J0_5_0" index="0" speed="13.89" length="14.40" shape="1.60,192.80 1.60,207.20"/>
    </edge>
    <edge id=":J1_0" function="internal">
        <lane id=":J1_0_0" index="0" speed="13.89" length="14.64" shape="-1.60,104.00 -2.10,100.68 -3.21,97.69 -4.33,94.26 -4.85,89.59"/>
        <lane id=":J1_0_1" index="1" speed="13.89" length="14.64" shape="-1.60,104.00 -1.65,89.58"/>
    </edge>
    <edge id=":J1_2" function="internal">
        <lane id=":J1_2_0" index="0" speed="6.54" length="9.10" shape="4.75,89.55 5.12,92.02 6.18,93.79 7.94,94.85 10.40,95.20"/>
        <lane id=":J1_2_1" index="1" speed="7.36" length="11.79" shape="4.75,89.55 5.12,93.42 6.18,96.19 7.94,97.85 10.40,98.40"/>
    </edge>
    <edge id=":J1_4" function="internal">
        <lane id=":J1_4_0" index="0" speed="13.89" length="14.44" shape="4.75,89.55 4.80,104.00"/>
        <lane id=":J1_4_1" index="1" speed="13.89" length="14.44" shape="1.55,89.56 1.60,104.00"/>
    </edge>
    <edge id=":J1_6" function="internal">
        <lane id=":J1_6_0" index="0" speed="6.50" length="9.03" shape="-10.43,95.20 -7.98,94.85 -6.23,93.80 -5.19,92.05 -4.85,89.59"/>
    </edge>
    <edge id=":J1_7" function="internal">
        <lane id=":J1_7_0" index="0" speed="13.89" length="20.83" shape="-10.43,95.20 10.40,95.20"/>
    </edge>
    <edge id=":J1_8" function="internal">
        <lane id=":J1_8_0" index="0" speed="7.99" length="4.07" shape="-10.43,98.40 -6.57,97.85 -6.42,97.76"/>
    </edge>
    <edge id=":J1_9" function="internal">
        <lane id=":J1_9_0" index="0" speed="13.89" length="20.83" shape="-10.43,98.40 10.40,98.40"/>
    </edge>
    <edge id=":J1_10" function="internal">
        <lane id=":J1_10_0" index="0" speed="8.11" length="14.59" shape="-10.43,98.40 -5.17,98.75 -1.41,99.80 0.85,101.55 1.60,104.00"/>
    </edge>
    <edge id=":J1_11" function="internal">
        <lane id=":J1_11_0" index="0" speed="7.99" length="10.14" shape="-6.42,97.76 -3.82,96.19 -2.18,93.44 -1.65,89.58"/>
    </edge>
    <edge id=":J14_0" function="internal">
        <lane id=":J14_0_0" index="0" speed="13.89" length="0.10" shape="-1.60,130.49 -1.60,130.49"/>
    </edge>
    <edge id=":J14_1" function="internal">
        <lane id=":J14_1_0" index="0" speed="13.89" length="0.10" shape="4.80,130.49 4.80,130.49"/>
        <lane id=":J14_1_1" index="1" speed="13.89" length="0.10" shape="1.60,130.49 1.60,130.49"/>
    </edge>
    <edge id=":J19_0" function="internal">
        <lane id=":J19_0_0" index="0" speed="13.89" length="14.40" shape="-4.80,-192.80 -4.80,-207.20"/>
        <lane id=":J19_0_1" index="1" speed="13.89" length="14.40" shape="-1.60,-192.80 -1.60,-207.20"/>
    </edge>
    <edge id=":J19_2" function="internal">
        <lane id=":J19_2_0" index="0" speed="8.67" length="3.71" shape="-1.60,-192.80 -0.89,-196.44"/>
    </edge>
    <edge id=":J19_8" function="internal">
        <lane id=":J19_8_0" index="0" speed="8.67" length="13.14" shape="-0.89,-196.44 -0.85,-196.65 1.40,-199.40 5.15,-201.05 10.40,-201.60"/>
    </edge>
    <edge id=":J19_3" function="internal">
        <lane id=":J19_3_0" index="0" speed="6.51" length="9.03" shape="10.40,-198.40 7.95,-198.05 6.20,-197.00 5.15,-195.25 4.80,-192.80"/>
    </edge>
    <edge id=":J19_4" function="internal">
        <lane id=":J19_4_0" index="0" speed="8.67" length="16.85" shape="10.40,-198.40 5.15,-198.95 1.40,-200.60 -0.85,-203.35 -1.60,-207.20"/>
    </edge>
    <edge id=":J19_5" function="internal">
        <lane id=":J19_5_0" index="0" speed="6.51" length="9.03" shape="4.80,-207.20 5.15,-204.75 6.20,-203.00 7.95,-201.95 10.40,-201.60"/>
    </edge>
    <edge id=":J19_6" function="internal">
        <lane id=":J19_6_0" index="0" speed="13.89" length="14.40" shape="4.80,-207.20 4.80,-192.80"/>
        <lane id=":J19_6_1" index="1" speed="13.89" length="14.40" shape="1.60,-207.20 1.60,-192.80"/>
    </edge>
    <edge id=":J2_0" function="internal">
        <lane id=":J2_0_0" index="0" speed="13.89" length="0.27" shape="-5.00,3.09 -5.00,2.84"/>
        <lane id=":J2_0_1" index="1" speed="13.89" length="0.27" shape="-1.80,3.10 -1.80,2.81"/>
    </edge>
    <edge id=":J2_2" function="internal">
        <lane id=":J2_2_0" index="0" speed="13.89" length="0.32" shape="4.60,2.77 4.60,3.10"/>
        <lane id=":J2_2_1" index="1" speed="13.89" length="0.32" shape="1.40,2.79 1.40,3.10"/>
    </edge>
    <edge id=":J21_0" function="internal">
        <lane id=":J21_0_0" index="0" speed="7.83" length="7.52" shape="-4.80,-176.90 -5.07,-178.40 -5.87,-179.87 -7.21,-181.32 -9.08,-182.74"/>
    </edge>
    <edge id=":J21_1" function="internal">
        <lane id=":J21_1_0" index="0" speed="13.89" length="8.14" shape="-4.80,-176.90 -4.80,-185.04"/>
        <lane id=":J21_1_1" index="1" speed="13.89" length="8.14" shape="-1.60,-176.90 -1.60,-185.04"/>
    </edge>
    <edge id=":J21_3" function="internal">
        <lane id=":J21_3_0" index="0" speed="13.89" length="8.14" shape="4.80,-185.04 4.80,-176.90"/>
        <lane id=":J21_3_1" index="1" speed="13.89" length="8.14" shape="1.60,-185.04 1.60,-176.90"/>
    </edge>
    <edge id=":J25_0" function="internal">
        <lane id=":J25_0_0" index="0" speed="13.89" length="15.70" shape="102.57,-14.20 106.20,-11.62 108.65,-9.56 111.30,-8.18 115.49,-7.69"/>
        <lane id=":J25_0_1" index="1" speed="13.89" length="15.70" shape="100.94,-11.45 105.01,-8.62 107.79,-6.42 110.79,-4.99 115.49,-4.49"/>
    </edge>
    <edge id=":J25_2" function="internal">
        <lane id=":J25_2_0" index="0" speed="13.89" length="15.58" shape="99.91,-7.71 115.49,-7.69"/>
        <lane id=":J25_2_1" index="1" speed="13.89" length="15.58" shape="99.91,-4.51 115.49,-4.49"/>
        <lane id=":J25_2_2" index="2" speed="13.89" length="15.58" shape="99.91,-1.31 115.50,-1.29"/>
    </edge>
    <edge id=":J26_0" function="internal">
        <lane id=":J26_0_0" index="0" speed="7.33" length="11.73" shape="-101.60,104.00 -101.25,100.15 -100.20,97.40 -98.45,95.75 -96.00,95.20"/>
        <lane id=":J26_0_1" index="1" speed="6.51" length="9.03" shape="-101.60,104.00 -101.25,101.55 -100.20,99.80 -98.45,98.75 -96.00,98.40"/>
    </edge>
    <edge id=":J26_2" function="internal">
        <lane id=":J26_2_0" index="0" speed="13.89" length="11.20" shape="-107.20,95.20 -96.00,95.20"/>
        <lane id=":J26_2_1" index="1" speed="13.89" length="11.20" shape="-107.20,98.40 -96.00,98.40"/>
    </edge>
    <edge id=":J27_0" function="internal">
        <lane id=":J27_0_0" index="0" speed="13.89" length="11.20" shape="-101.60,304.00 -101.60,292.80"/>
    </edge>
    <edge id=":J27_1" function="internal">
        <lane id=":J27_1_0" index="0" speed="6.51" length="9.03" shape="-101.60,304.00 -101.25,301.55 -100.20,299.80 -98.45,298.75 -96.00,298.40"/>
    </edge>
    <edge id=":J28_0" function="internal">
        <lane id=":J28_0_0" index="0" speed="13.89" length="11.20" shape="-1.60,304.00 -1.60,292.80"/>
    </edge>
    <edge id=":J28_1" function="internal">
        <lane id=":J28_1_0" index="0" speed="13.89" length="11.20" shape="1.60,292.80 1.60,304.00"/>
    </edge>
    <edge id=":J28_2" function="internal">
        <lane id=":J28_2_0" index="0" speed="6.51" length="9.03" shape="-7.20,298.40 -4.75,298.05 -3.00,297.00 -1.95,295.25 -1.60,292.80"/>
    </edge>
    <edge id=":J28_3" function="internal">
        <lane id=":J28_3_0" index="0" speed="7.33" length="11.73" shape="-7.20,298.40 -3.35,298.75 -0.60,299.80 1.05,301.55 1.60,304.00"/>
    </edge>
    <edge id=":J29_0" function="internal">
        <lane id=":J29_0_0" index="0" speed="13.89" length="14.10" shape="-116.09,-7.91 -112.13,-8.40 -109.65,-9.75 -107.37,-11.79 -104.01,-14.35"/>
        <lane id=":J29_0_1" index="1" speed="13.89" length="14.65" shape="-116.09,-7.91 -111.77,-7.95 -108.77,-8.34 -105.99,-9.45 -102.29,-11.65"/>
    </edge>
    <edge id=":J29_2" function="internal">
        <lane id=":J29_2_0" index="0" speed="13.89" length="14.89" shape="-116.09,-7.91 -101.20,-7.89"/>
        <lane id=":J29_2_1" index="1" speed="13.89" length="14.89" shape="-116.09,-4.71 -101.20,-4.69"/>
        <lane id=":J29_2_2" index="2" speed="13.89" length="14.89" shape="-116.09,-1.51 -101.20,-1.49"/>
    </edge>
    <edge id=":J3_0" function="internal">
        <lane id=":J3_0_0" index="0" speed="6.57" length="9.16" shape="10.40,-95.20 7.93,-94.84 6.16,-93.78 5.08,-92.00 4.71,-89.50"/>
    </edge>
    <edge id=":J3_1" function="internal">
        <lane id=":J3_1_0" index="0" speed="13.89" length="20.86" shape="10.40,-95.20 -10.46,-95.20"/>
        <lane id=":J3_1_1" index="1" speed="13.89" length="20.86" shape="10.40,-98.40 -10.46,-98.40"/>
    </edge>
    <edge id=":J3_3" function="internal">
        <lane id=":J3_3_0" index="0" speed="8.10" length="14.57" shape="10.40,-98.40 5.15,-98.75 1.40,-99.80 -0.85,-101.55 -1.60,-104.00"/>
    </edge>
    <edge id=":J3_4" function="internal">
        <lane id=":J3_4_0" index="0" speed="13.89" length="14.48" shape="4.80,-104.00 4.71,-89.50"/>
        <lane id=":J3_4_1" index="1" speed="13.89" length="14.48" shape="1.60,-104.00 1.51,-89.53"/>
    </edge>
    <edge id=":J3_6" function="internal">
        <lane id=":J3_6_0" index="0" speed="8.11" length="2.38" shape="1.60,-104.00 0.90,-101.72"/>
    </edge>
    <edge id=":J3_10" function="internal">
        <lane id=":J3_10_0" index="0" speed="8.11" length="12.24" shape="0.90,-101.72 0.85,-101.55 -1.41,-99.80 -5.18,-98.75 -10.46,-98.40"/>
    </edge>
    <edge id=":J3_7" function="internal">
        <lane id=":J3_7_0" index="0" speed="6.49" length="9.03" shape="-4.89,-89.59 -5.22,-92.04 -6.26,-93.80 -8.00,-94.85 -10.46,-95.20"/>
    </edge>
    <edge id=":J3_8" function="internal">
        <lane id=":J3_8_0" index="0" speed="13.89" length="14.43" shape="-4.89,-89.59 -4.80,-104.00"/>
        <lane id=":J3_8_1" index="1" speed="13.89" length="14.43" shape="-1.69,-89.56 -1.60,-104.00"/>
    </edge>
    <edge id=":J30_0" function="internal">
        <lane id=":J30_0_0" index="0" speed="6.51" length="9.03" shape="-4.98,59.98 -5.34,57.53 -6.40,55.78 -8.15,54.74 -10.61,54.40"/>
    </edge>
    <edge id=":J30_1" function="internal">
        <lane id=":J30_1_0" index="0" speed="13.89" length="17.85" shape="-4.98,59.98 -5.04,42.24"/>
        <lane id=":J30_1_1" index="1" speed="13.89" length="17.85" shape="-1.78,59.96 -2.31,54.66 -3.43,51.10 -4.54,47.55 -5.04,42.24"/>
        <lane id=":J30_1_2" index="2" speed="13.89" length="17.85" shape="-1.78,59.96 -1.84,42.25"/>
    </edge>
    <edge id=":J30_4" function="internal">
        <lane id=":J30_4_0" index="0" speed="6.58" length="9.18" shape="10.29,54.19 7.80,54.58 6.03,55.67 4.97,57.45 4.62,59.93"/>
        <lane id=":J30_4_1" index="1" speed="7.40" length="11.86" shape="10.29,54.19 6.40,54.60 3.63,55.70 1.97,57.48 1.42,59.95"/>
    </edge>
    <edge id=":J30_6" function="internal">
        <lane id=":J30_6_0" index="0" speed="9.29" length="19.75" shape="10.24,50.99 3.55,50.54 -1.22,48.93 -4.08,46.16 -5.04,42.24"/>
        <lane id=":J30_6_1" index="1" speed="8.06" length="14.62" shape="10.18,47.79 4.92,47.52 1.17,46.50 -1.09,44.75 -1.84,42.25"/>
    </edge>
    <edge id=":J30_8" function="internal">
        <lane id=":J30_8_0" index="0" speed="13.89" length="17.69" shape="4.56,42.25 4.62,59.93"/>
        <lane id=":J30_8_1" index="1" speed="13.89" length="17.69" shape="1.36,42.25 1.42,59.95"/>
    </edge>
    <edge id=":J30_10" function="internal">
        <lane id=":J30_10_0" index="0" speed="8.13" length="2.41" shape="1.36,42.25 0.67,44.55"/>
    </edge>
    <edge id=":J30_11" function="internal">
        <lane id=":J30_11_0" index="0" speed="8.13" length="12.24" shape="0.67,44.55 0.61,44.75 -1.64,46.54 -5.39,47.62 -10.63,48.00"/>
    </edge>
    <edge id=":J31_0" function="internal">
        <lane id=":J31_0_0" index="0" speed="13.89" length="17.70" shape="-5.28,-36.94 -5.19,-54.65"/>
    </edge>
    <edge id=":J31_1" function="internal">
        <lane id=":J31_1_0" index="0" speed="9.26" length="7.90" shape="-5.28,-36.94 -4.35,-40.88 -1.59,-43.57"/>
    </edge>
    <edge id=":J31_2" function="internal">
        <lane id=":J31_2_0" index="0" speed="13.89" length="17.65" shape="-2.08,-36.97 -1.99,-54.62"/>
    </edge>
    <edge id=":J31_3" function="internal">
        <lane id=":J31_3_0" index="0" speed="8.04" length="2.44" shape="-2.08,-36.97 -1.40,-39.31"/>
    </edge>
    <edge id=":J31_12" function="internal">
        <lane id=":J31_12_0" index="0" speed="9.26" length="11.85" shape="-1.59,-43.57 -1.51,-43.66 3.26,-45.27 9.94,-45.71"/>
    </edge>
    <edge id=":J31_13" function="internal">
        <lane id=":J31_13_0" index="0" speed="8.04" length="12.15" shape="-1.40,-39.31 -1.35,-39.47 0.89,-41.23 4.63,-42.25 9.88,-42.51"/>
    </edge>
    <edge id=":J31_4" function="internal">
        <lane id=":J31_4_0" index="0" speed="6.53" length="9.04" shape="4.41,-54.56 4.74,-52.13 5.78,-50.38 7.53,-49.30 10.00,-48.91"/>
    </edge>
    <edge id=":J31_5" function="internal">
        <lane id=":J31_5_0" index="0" speed="13.89" length="17.70" shape="4.41,-54.56 4.32,-37.01"/>
        <lane id=":J31_5_1" index="1" speed="13.89" length="17.70" shape="1.21,-54.59 1.65,-49.33 2.71,-45.80 3.80,-42.27 4.32,-37.01"/>
        <lane id=":J31_5_2" index="2" speed="13.89" length="17.70" shape="1.21,-54.59 1.12,-36.99"/>
    </edge>
    <edge id=":J31_8" function="internal">
        <lane id=":J31_8_0" index="0" speed="6.55" length="9.08" shape="-10.90,-49.06 -8.42,-49.42 -6.64,-50.47 -5.57,-52.21 -5.19,-54.65"/>
        <lane id=":J31_8_1" index="1" speed="8.04" length="14.20" shape="-10.89,-45.86 -7.03,-46.42 -4.26,-48.07 -2.58,-50.80 -1.99,-54.62"/>
    </edge>
    <edge id=":J31_10" function="internal">
        <lane id=":J31_10_0" index="0" speed="9.34" length="19.67" shape="-10.89,-45.86 -4.26,-45.33 0.48,-43.68 3.34,-40.90 4.32,-37.01"/>
        <lane id=":J31_10_1" index="1" speed="8.12" length="14.62" shape="-10.88,-42.66 -5.65,-42.32 -1.90,-41.27 0.35,-39.49 1.12,-36.99"/>
    </edge>
    <edge id=":J33_0" function="internal">
        <lane id=":J33_0_0" index="0" speed="13.89" length="20.85" shape="116.10,15.62 110.08,16.17 106.13,17.73 102.44,20.17 97.21,23.37"/>
        <lane id=":J33_0_1" index="1" speed="13.89" length="21.36" shape="116.10,15.62 109.73,15.73 105.27,16.32 101.13,17.79 95.70,20.55"/>
    </edge>
    <edge id=":J33_2" function="internal">
        <lane id=":J33_2_0" index="0" speed="13.89" length="21.63" shape="116.10,15.62 94.47,15.66"/>
        <lane id=":J33_2_1" index="1" speed="13.89" length="21.63" shape="116.10,12.42 94.46,12.46"/>
        <lane id=":J33_2_2" index="2" speed="13.89" length="21.63" shape="116.09,9.22 94.46,9.26"/>
    </edge>
    <edge id=":J34_0" function="internal">
        <lane id=":J34_0_0" index="0" speed="13.89" length="21.01" shape="-100.42,23.77 -105.51,20.53 -109.04,18.12 -112.81,16.60 -118.61,16.06"/>
        <lane id=":J34_0_1" index="1" speed="13.89" length="21.01" shape="-98.86,20.98 -104.12,17.65 -108.00,15.10 -112.24,13.45 -118.60,12.86"/>
    </edge>
    <edge id=":J34_2" function="internal">
        <lane id=":J34_2_0" index="0" speed="13.89" length="21.03" shape="-97.57,16.02 -118.61,16.06"/>
        <lane id=":J34_2_1" index="1" speed="13.89" length="21.03" shape="-97.58,12.82 -118.60,12.86"/>
        <lane id=":J34_2_2" index="2" speed="13.89" length="21.03" shape="-97.58,9.62 -118.60,9.66"/>
    </edge>
    <edge id=":J36_0" function="internal">
        <lane id=":J36_0_0" index="0" speed="13.89" length="10.28" shape="45.47,-48.28 48.72,-47.71 50.65,-46.34 52.43,-44.45 55.22,-42.30"/>
        <lane id=":J36_0_1" index="1" speed="13.89" length="10.28" shape="45.42,-45.08 48.48,-44.97 50.59,-44.63 52.56,-43.82 55.22,-42.30"/>
        <lane id=":J36_0_2" index="2" speed="13.89" length="10.28" shape="45.42,-45.08 48.18,-44.53 49.76,-43.22 51.21,-41.46 53.59,-39.54"/>
        <lane id=":J36_0_3" index="3" speed="13.86" length="10.28" shape="45.36,-41.88 47.93,-41.79 49.70,-41.50 51.35,-40.82 53.59,-39.54"/>
    </edge>
    <edge id=":J37_0" function="internal">
        <lane id=":J37_0_0" index="0" speed="13.89" length="10.29" shape="-45.76,54.54 -49.01,54.05 -50.96,52.72 -52.78,50.87 -55.62,48.80"/>
        <lane id=":J37_0_1" index="1" speed="13.89" length="10.29" shape="-45.77,51.34 -48.83,51.30 -50.94,51.01 -52.93,50.25 -55.62,48.80"/>
        <lane id=":J37_0_2" index="2" speed="13.89" length="10.29" shape="-45.78,48.14 -48.36,48.11 -50.13,47.86 -51.80,47.22 -54.06,46.01"/>
    </edge>
    <edge id=":J38_0" function="internal">
        <lane id=":J38_0_0" index="0" speed="13.89" length="10.10" shape="51.22,47.95 48.41,49.94 46.64,51.76 44.74,53.10 41.56,53.67"/>
        <lane id=":J38_0_1" index="1" speed="13.89" length="10.10" shape="49.71,45.13 47.30,46.92 45.83,48.63 44.25,49.92 41.51,50.47"/>
        <lane id=":J38_0_2" index="2" speed="13.89" length="10.10" shape="49.71,45.13 47.44,46.30 45.77,46.92 44.02,47.18 41.46,47.27"/>
    </edge>
    <edge id=":J39_0" function="internal">
        <lane id=":J39_0_0" index="0" speed="11.87" length="5.64" shape="-57.22,-44.14 -55.63,-45.69 -54.78,-47.24 -53.82,-48.43 -51.91,-48.91"/>
        <lane id=":J39_0_1" index="1" speed="10.31" length="5.64" shape="-55.50,-41.44 -51.90,-45.71"/>
        <lane id=":J39_0_2" index="2" speed="8.65" length="5.64" shape="-55.50,-41.44 -54.53,-42.04 -53.81,-42.35 -53.02,-42.48 -51.89,-42.51"/>
    </edge>
    <edge id=":J6_0" function="internal">
        <lane id=":J6_0_0" index="0" speed="13.89" length="0.10" shape="-4.80,-130.94 -4.80,-130.94"/>
        <lane id=":J6_0_1" index="1" speed="13.89" length="0.10" shape="-1.60,-130.94 -1.60,-130.94"/>
    </edge>
    <edge id=":J6_2" function="internal">
        <lane id=":J6_2_0" index="0" speed="13.89" length="0.10" shape="4.80,-130.94 4.80,-130.94"/>
        <lane id=":J6_2_1" index="1" speed="13.89" length="0.10" shape="1.60,-130.94 1.60,-130.94"/>
    </edge>
    <edge id=":J8_0" function="internal">
        <lane id=":J8_0_0" index="0" speed="13.89" length="0.10" shape="-101.60,200.00 -101.60,200.00"/>
    </edge>
    <edge id=":J9_0" function="internal">
        <lane id=":J9_0_0" index="0" speed="13.89" length="0.10" shape="38.00,-95.20 38.00,-95.20"/>
        <lane id=":J9_0_1" index="1" speed="13.89" length="0.10" shape="38.00,-98.40 38.00,-98.40"/>
    </edge>

    <edge id="-E0" from="J1" to="J14" priority="-1">
        <lane id="-E0_0" index="0" speed="13.89" length="26.49" shape="4.80,104.00 4.80,130.49"/>
        <lane id="-E0_1" index="1" speed="13.89" length="26.49" shape="1.60,104.00 1.60,130.49"/>
    </edge>
    <edge id="-E0.30" from="J14" to="J0" priority="-1">
        <lane id="-E0.30_0" index="0" speed="13.89" length="62.31" shape="4.80,130.49 4.80,192.80"/>
        <lane id="-E0.30_1" index="1" speed="13.89" length="62.31" shape="1.60,130.49 1.60,192.80"/>
    </edge>
    <edge id="-E00" from="J20" to="J19" priority="-1">
        <lane id="-E00_0" index="0" speed="13.89" length="89.60" shape="100.00,-198.40 10.40,-198.40"/>
    </edge>
    <edge id="-E10" from="J0" to="J28" priority="-1">
        <lane id="-E10_0" index="0" speed="13.89" length="85.60" shape="1.60,207.20 1.60,292.80"/>
    </edge>
    <edge id="-E100" from="J28" to="J11" priority="-1">
        <lane id="-E100_0" index="0" speed="13.89" length="96.00" shape="1.60,304.00 1.60,400.00"/>
    </edge>
    <edge id="-E12" from="J0" to="J13" priority="-1">
        <lane id="-E12_0" index="0" speed="13.89" length="89.60" shape="10.40,198.40 100.00,198.40"/>
    </edge>
    <edge id="-E16" from="J3" to="J6" priority="-1">
        <lane id="-E16_0" index="0" speed="13.89" length="26.94" shape="-4.80,-104.00 -4.80,-130.94"/>
        <lane id="-E16_1" index="1" speed="13.89" length="26.94" shape="-1.60,-104.00 -1.60,-130.94"/>
    </edge>
    <edge id="-E160" from="J6" to="J21" priority="-1">
        <lane id="-E160_0" index="0" speed="13.89" length="45.96" shape="-4.80,-130.94 -4.80,-176.90"/>
        <lane id="-E160_1" index="1" speed="13.89" length="45.96" shape="-1.60,-130.94 -1.60,-176.90"/>
    </edge>
    <edge id="-E160.47" from="J21" to="J19" priority="-1">
        <lane id="-E160.47_0" index="0" speed="13.89" length="7.76" shape="-4.80,-185.04 -4.80,-192.80"/>
        <lane id="-E160.47_1" index="1" speed="13.89" length="7.76" shape="-1.60,-185.04 -1.60,-192.80"/>
    </edge>
    <edge id="-E160.69" from="J19" to="J18" priority="-1">
        <lane id="-E160.69_0" index="0" speed="13.89" length="192.80" shape="-4.80,-207.20 -4.80,-400.00"/>
        <lane id="-E160.69_1" index="1" speed="13.89" length="192.80" shape="-1.60,-207.20 -1.60,-400.00"/>
    </edge>
    <edge id="-E20" from="J31" to="J2" priority="-1">
        <lane id="-E20_0" index="0" speed="13.89" length="39.78" shape="4.32,-37.01 4.60,2.77"/>
        <lane id="-E20_1" index="1" speed="13.89" length="39.78" shape="1.12,-36.99 1.40,2.79"/>
    </edge>
    <edge id="A" from="J26" to="J1" priority="-1">
        <lane id="A_0" index="0" speed="13.89" length="85.57" shape="-96.00,95.20 -10.43,95.20"/>
        <lane id="A_1" index="1" speed="13.89" length="85.57" shape="-96.00,98.40 -10.43,98.40"/>
    </edge>
    <edge id="B" from="J30" to="J1" priority="-1">
        <lane id="B_0" index="0" speed="13.89" length="29.62" shape="4.62,59.93 4.75,89.55"/>
        <lane id="B_1" index="1" speed="13.89" length="29.62" shape="1.42,59.95 1.55,89.56"/>
    </edge>
    <edge id="C" from="J14" to="J1" priority="-1">
        <lane id="C_0" index="0" speed="13.89" length="26.49" shape="-1.60,130.49 -1.60,104.00"/>
    </edge>
    <edge id="C1" from="J0" to="J14" priority="-1">
        <lane id="C1_0" index="0" speed="13.89" length="62.31" shape="-1.60,192.80 -1.60,130.49"/>
    </edge>
    <edge id="D" from="J38" to="J30" priority="-1">
        <lane id="D_0" index="0" speed="13.89" length="31.28" shape="41.56,53.67 10.29,54.19"/>
        <lane id="D_1" index="1" speed="13.89" length="31.28" shape="41.51,50.47 10.24,50.99"/>
        <lane id="D_2" index="2" speed="13.89" length="31.28" shape="41.46,47.27 10.18,47.79"/>
    </edge>
    <edge id="E" from="J1" to="J30" priority="-1">
        <lane id="E_0" index="0" speed="13.89" length="29.62" shape="-4.85,89.59 -4.98,59.98"/>
        <lane id="E_1" index="1" speed="13.89" length="29.62" shape="-1.65,89.58 -1.78,59.96"/>
    </edge>
    <edge id="E0" from="J19" to="J20" priority="-1">
        <lane id="E0_0" index="0" speed="13.89" length="89.60" shape="10.40,-201.60 100.00,-201.60"/>
    </edge>
    <edge id="E1" from="J21" to="J22" priority="-1">
        <lane id="E1_0" index="0" speed="13.89" length="70.29" shape="-9.08,-182.74 -67.75,-221.44"/>
    </edge>
    <edge id="E1.46" from="J30" to="J2" priority="-1">
        <lane id="E1.46_0" index="0" speed="13.89" length="39.15" shape="-5.04,42.24 -5.00,3.09"/>
        <lane id="E1.46_1" index="1" speed="13.89" length="39.15" shape="-1.84,42.25 -1.80,3.10"/>
    </edge>
    <edge id="E10" from="J11" to="J28" priority="-1">
        <lane id="E10_0" index="0" speed="13.89" length="96.00" shape="-1.60,400.00 -1.60,304.00"/>
    </edge>
    <edge id="E10.100" from="J28" to="J0" priority="-1">
        <lane id="E10.100_0" index="0" speed="13.89" length="85.60" shape="-1.60,292.80 -1.60,207.20"/>
    </edge>
    <edge id="E11" from="J12" to="J27" priority="-1">
        <lane id="E11_0" index="0" speed="13.89" length="96.00" shape="-101.60,400.00 -101.60,304.00"/>
    </edge>
    <edge id="E11.100" from="J27" to="J8" priority="-1">
        <lane id="E11.100_0" index="0" speed="13.89" length="92.80" shape="-101.60,292.80 -101.60,200.00"/>
    </edge>
    <edge id="E12" from="J13" to="J0" priority="-1">
        <lane id="E12_0" index="0" speed="13.89" length="89.60" shape="100.00,201.60 10.40,201.60"/>
    </edge>
    <edge id="E14" from="J16" to="J9" priority="-1">
        <lane id="E14_0" index="0" speed="13.89" length="362.00" shape="400.00,-95.20 38.00,-95.20"/>
        <lane id="E14_1" index="1" speed="13.89" length="362.00" shape="400.00,-98.40 38.00,-98.40"/>
    </edge>
    <edge id="E15" from="J3" to="J17" priority="-1">
        <lane id="E15_0" index="0" speed="13.89" length="389.54" shape="-10.46,-95.20 -400.00,-95.20"/>
        <lane id="E15_1" index="1" speed="13.89" length="389.54" shape="-10.46,-98.40 -400.00,-98.40"/>
    </edge>
    <edge id="E16" from="J18" to="J19" priority="-1">
        <lane id="E16_0" index="0" speed="13.89" length="192.80" shape="4.80,-400.00 4.80,-207.20"/>
        <lane id="E16_1" index="1" speed="13.89" length="192.80" shape="1.60,-400.00 1.60,-207.20"/>
    </edge>
    <edge id="E160" from="J19" to="J21" priority="-1">
        <lane id="E160_0" index="0" speed="13.89" length="7.76" shape="4.80,-192.80 4.80,-185.04"/>
        <lane id="E160_1" index="1" speed="13.89" length="7.76" shape="1.60,-192.80 1.60,-185.04"/>
    </edge>
    <edge id="E1600" from="J21" to="J6" priority="-1">
        <lane id="E1600_0" index="0" speed="13.89" length="45.96" shape="4.80,-176.90 4.80,-130.94"/>
        <lane id="E1600_1" index="1" speed="13.89" length="45.96" shape="1.60,-176.90 1.60,-130.94"/>
    </edge>
    <edge id="E25" from="J8" to="J26" priority="-1">
        <lane id="E25_0" index="0" speed="13.89" length="96.00" shape="-101.60,200.00 -101.60,104.00"/>
    </edge>
    <edge id="E26" from="J27" to="J28" priority="-1">
        <lane id="E26_0" index="0" speed="13.89" length="88.80" shape="-96.00,298.40 -7.20,298.40"/>
    </edge>
    <edge id="E29" from="J29" to="J39" priority="-1">
        <lane id="E29_0" index="0" speed="13.89" length="55.47" shape="-104.01,-14.35 -57.22,-44.14"/>
        <lane id="E29_1" index="1" speed="13.89" length="55.47" shape="-102.29,-11.65 -55.50,-41.44"/>
    </edge>
    <edge id="E29.77" from="J39" to="J31" priority="-1">
        <lane id="E29.77_0" index="0" speed="13.89" length="41.01" shape="-51.91,-48.91 -10.90,-49.06"/>
        <lane id="E29.77_1" index="1" speed="13.89" length="41.01" shape="-51.90,-45.71 -10.89,-45.86"/>
        <lane id="E29.77_2" index="2" speed="13.89" length="41.01" shape="-51.89,-42.51 -10.88,-42.66"/>
    </edge>
    <edge id="E3" from="J4" to="J29" priority="-1">
        <lane id="E3_0" index="0" speed="13.89" length="283.91" shape="-400.00,-8.00 -116.09,-7.91"/>
        <lane id="E3_1" index="1" speed="13.89" length="283.91" shape="-400.00,-4.80 -116.09,-4.71"/>
        <lane id="E3_2" index="2" speed="13.89" length="283.91" shape="-400.00,-1.60 -116.09,-1.51"/>
    </edge>
    <edge id="E3.300" from="J29" to="J25" priority="-1">
        <lane id="E3.300_0" index="0" speed="13.89" length="201.11" shape="-101.20,-7.89 99.91,-7.71"/>
        <lane id="E3.300_1" index="1" speed="13.89" length="201.11" shape="-101.20,-4.69 99.91,-4.51"/>
        <lane id="E3.300_2" index="2" speed="13.89" length="201.11" shape="-101.20,-1.49 99.91,-1.31"/>
    </edge>
    <edge id="E3.498" from="J25" to="J5" priority="-1">
        <lane id="E3.498_0" index="0" speed="13.89" length="284.50" shape="115.49,-7.69 399.99,-8.00"/>
        <lane id="E3.498_1" index="1" speed="13.89" length="284.50" shape="115.49,-4.49 399.99,-4.80"/>