<?xml version="1.0" encoding="UTF-8"?>

<!-- generated on 2024-04-13 09:40:17 by Eclipse SUMO netedit Version 1.18.0
<configuration xmlns:xsi="http://www.w3.org/2001/XMLSchema-instance" xsi:noNamespaceSchemaLocation="http://sumo.dlr.de/xsd/neteditConfiguration.xsd">

    <input>
        <sumo-net-file value="D:\Repositorios_GitHub\Tesis-Implementacion\SUMO\MapaDe0\red.net.xml"/>
    </input>

    <output>
        <output-file value="D:\Repositorios_GitHub\Tesis-Implementacion\SUMO\MapaDe0\red.net.xml"/>
    </output>

    <processing>
        <geometry.min-radius.fix.railways value="false"/>
        <geometry.max-grade.fix value="false"/>
        <offset.disable-normalization value="true"/>
        <lefthand value="0"/>
    </processing>

    <junctions>
        <no-turnarounds value="true"/>
        <junctions.corner-detail value="5"/>
        <junctions.limit-turn-speed value="5.50"/>
        <rectangular-lane-cut value="0"/>
    </junctions>

    <pedestrian>
        <walkingareas value="0"/>
    </pedestrian>

</configuration>
-->

<net version="1.16" junctionCornerDetail="5" limitTurnSpeed="5.50" xmlns:xsi="http://www.w3.org/2001/XMLSchema-instance" xsi:noNamespaceSchemaLocation="http://sumo.dlr.de/xsd/net_file.xsd">

    <location netOffset="0.00,0.00" convBoundary="-400.35,-400.00,401.18,400.00" origBoundary="-10000000000.00,-10000000000.00,10000000000.00,10000000000.00" projParameter="!"/>

    <edge id=":J0_0" function="internal">
        <lane id=":J0_0_0" index="0" speed="13.89" length="14.40" shape="-1.60,207.20 -1.60,192.80"/>
    </edge>
    <edge id=":J0_1" function="internal">
        <lane id=":J0_1_0" index="0" speed="8.67" length="3.71" shape="-1.60,207.20 -0.89,203.56"/>
    </edge>
    <edge id=":J0_6" function="internal">
        <lane id=":J0_6_0" index="0" speed="8.67" length="13.14" shape="-0.89,203.56 -0.85,203.35 1.40,200.60 5.15,198.95 10.40,198.40"/>
    </edge>
    <edge id=":J0_2" function="internal">
        <lane id=":J0_2_0" index="0" speed="7.33" length="11.73" shape="10.40,201.60 6.55,201.95 3.80,203.00 2.15,204.75 1.60,207.20"/>
    </edge>
    <edge id=":J0_3" function="internal">
        <lane id=":J0_3_0" index="0" speed="8.67" length="16.85" shape="10.40,201.60 5.15,201.05 1.40,199.40 -0.85,196.65 -1.60,192.80"/>
    </edge>
    <edge id=":J0_4" function="internal">
        <lane id=":J0_4_0" index="0" speed="6.51" length="9.03" shape="4.80,192.80 5.15,195.25 6.20,197.00 7.95,198.05 10.40,198.40"/>
    </edge>
    <edge id=":J0_5" function="internal">
        <lane id=":J0_5_0" index="0" speed="13.89" length="14.40" shape="1.60,192.80 1.60,207.20"/>
    </edge>
    <edge id=":J1_0" function="internal">
        <lane id=":J1_0_0" index="0" speed="6.52" length="9.03" shape="5.19,84.09 5.54,86.53 6.60,88.27 8.35,89.32 10.80,89.68"/>
        <lane id=":J1_0_1" index="1" speed="7.33" length="11.71" shape="5.19,84.09 5.54,87.93 6.59,90.67 8.34,92.32 10.79,92.88"/>
    </edge>
    <edge id=":J1_2" function="internal">
        <lane id=":J1_2_0" index="0" speed="13.89" length="14.43" shape="5.19,84.09 5.15,98.54"/>
        <lane id=":J1_2_1" index="1" speed="13.89" length="14.43" shape="1.99,84.09 1.96,98.50"/>
    </edge>
    <edge id=":J1_4" function="internal">
        <lane id=":J1_4_0" index="0" speed="6.52" length="9.01" shape="-9.97,89.72 -7.54,89.35 -5.80,88.29 -4.75,86.54 -4.41,84.09"/>
    </edge>
    <edge id=":J1_5" function="internal">
        <lane id=":J1_5_0" index="0" speed="13.89" length="20.77" shape="-9.97,89.72 10.80,89.68"/>
    </edge>
    <edge id=":J1_6" function="internal">
        <lane id=":J1_6_0" index="0" speed="8.01" length="4.01" shape="-9.95,92.92 -6.12,92.34 -6.00,92.27"/>
    </edge>
    <edge id=":J1_7" function="internal">
        <lane id=":J1_7_0" index="0" speed="13.89" length="20.73" shape="-9.95,92.92 10.79,92.88"/>
    </edge>
    <edge id=":J1_8" function="internal">
        <lane id=":J1_8_0" index="0" speed="8.03" length="14.52" shape="-9.95,92.92 -4.72,93.24 -0.99,94.27 1.23,96.02 1.96,98.50"/>
    </edge>
    <edge id=":J1_11" function="internal">
        <lane id=":J1_11_0" index="0" speed="8.01" length="10.14" shape="-6.00,92.27 -3.39,90.68 -1.75,87.93 -1.21,84.09"/>
    </edge>
    <edge id=":J1_9" function="internal">
        <lane id=":J1_9_0" index="0" speed="13.89" length="14.59" shape="-1.24,98.46 -1.71,95.14 -2.80,92.16 -3.90,88.74 -4.41,84.09"/>
        <lane id=":J1_9_1" index="1" speed="13.89" length="14.59" shape="-1.24,98.46 -1.21,84.09"/>
    </edge>
    <edge id=":J14_0" function="internal">
        <lane id=":J14_0_0" index="0" speed="13.89" length="0.33" shape="-1.60,130.65 -1.60,130.32"/>
    </edge>
    <edge id=":J14_1" function="internal">
        <lane id=":J14_1_0" index="0" speed="13.89" length="0.28" shape="4.80,130.39 4.80,130.65"/>
        <lane id=":J14_1_1" index="1" speed="13.89" length="0.28" shape="1.60,130.35 1.60,130.65"/>
    </edge>
    <edge id=":J19_0" function="internal">
        <lane id=":J19_0_0" index="0" speed="13.89" length="14.40" shape="-4.80,-192.80 -4.80,-207.20"/>
        <lane id=":J19_0_1" index="1" speed="13.89" length="14.40" shape="-1.60,-192.80 -1.60,-207.20"/>
    </edge>
    <edge id=":J19_2" function="internal">
        <lane id=":J19_2_0" index="0" speed="8.67" length="3.71" shape="-1.60,-192.80 -0.89,-196.44"/>
    </edge>
    <edge id=":J19_8" function="internal">
        <lane id=":J19_8_0" index="0" speed="8.67" length="13.14" shape="-0.89,-196.44 -0.85,-196.65 1.40,-199.40 5.15,-201.05 10.40,-201.60"/>
    </edge>
    <edge id=":J19_3" function="internal">
        <lane id=":J19_3_0" index="0" speed="6.51" length="9.03" shape="10.40,-198.40 7.95,-198.05 6.20,-197.00 5.15,-195.25 4.80,-192.80"/>
    </edge>
    <edge id=":J19_4" function="internal">
        <lane id=":J19_4_0" index="0" speed="8.67" length="16.85" shape="10.40,-198.40 5.15,-198.95 1.40,-200.60 -0.85,-203.35 -1.60,-207.20"/>
    </edge>
    <edge id=":J19_5" function="internal">
        <lane id=":J19_5_0" index="0" speed="6.51" length="9.03" shape="4.80,-207.20 5.15,-204.75 6.20,-203.00 7.95,-201.95 10.40,-201.60"/>
    </edge>
    <edge id=":J19_6" function="internal">
        <lane id=":J19_6_0" index="0" speed="13.89" length="14.40" shape="4.80,-207.20 4.80,-192.80"/>
        <lane id=":J19_6_1" index="1" speed="13.89" length="14.40" shape="1.60,-207.20 1.60,-192.80"/>
    </edge>
    <edge id=":J2_0" function="internal">
        <lane id=":J2_0_0" index="0" speed="13.89" length="0.32" shape="-5.00,3.17 -5.00,2.83"/>
        <lane id=":J2_0_1" index="1" speed="13.89" length="0.32" shape="-1.80,3.12 -1.80,2.81"/>
    </edge>
    <edge id=":J2_2" function="internal">
        <lane id=":J2_2_0" index="0" speed="13.89" length="0.27" shape="4.60,2.77 4.60,3.03"/>
        <lane id=":J2_2_1" index="1" speed="13.89" length="0.27" shape="1.40,2.79 1.40,3.08"/>
    </edge>
    <edge id=":J21_0" function="internal">
        <lane id=":J21_0_0" index="0" speed="13.89" length="8.21" shape="4.80,-185.06 4.79,-176.84"/>
        <lane id=":J21_0_1" index="1" speed="13.89" length="8.21" shape="1.60,-185.06 1.59,-176.86"/>
    </edge>
    <edge id=":J21_2" function="internal">
        <lane id=":J21_2_0" index="0" speed="7.82" length="7.54" shape="-4.81,-176.89 -5.07,-178.39 -5.87,-179.87 -7.21,-181.32 -9.09,-182.75"/>
    </edge>
    <edge id=":J21_3" function="internal">
        <lane id=":J21_3_0" index="0" speed="13.89" length="8.18" shape="-4.81,-176.89 -4.80,-185.06"/>
        <lane id=":J21_3_1" index="1" speed="13.89" length="8.18" shape="-1.61,-176.87 -1.60,-185.06"/>
    </edge>
    <edge id=":J25_0" function="internal">
        <lane id=":J25_0_0" index="0" speed="13.89" length="14.49" shape="114.14,-14.77 117.30,-12.21 119.44,-10.18 121.79,-8.83 125.59,-8.34"/>
        <lane id=":J25_0_1" index="1" speed="13.89" length="14.49" shape="112.34,-12.12 115.97,-9.26 118.48,-7.06 121.23,-5.64 125.58,-5.14"/>
    </edge>
    <edge id=":J25_2" function="internal">
        <lane id=":J25_2_0" index="0" speed="13.89" length="14.40" shape="111.18,-8.36 125.59,-8.34"/>
        <lane id=":J25_2_1" index="1" speed="13.89" length="14.40" shape="111.18,-5.16 125.58,-5.14"/>
        <lane id=":J25_2_2" index="2" speed="13.89" length="14.40" shape="111.17,-1.96 125.58,-1.94"/>
    </edge>
    <edge id=":J26_0" function="internal">
        <lane id=":J26_0_0" index="0" speed="7.33" length="11.70" shape="-102.04,99.24 -101.71,95.40 -100.68,92.65 -98.95,90.99 -96.51,90.42"/>
        <lane id=":J26_0_1" index="1" speed="6.51" length="9.01" shape="-102.04,99.24 -101.70,96.80 -100.67,95.05 -98.93,93.99 -96.49,93.62"/>
    </edge>
    <edge id=":J26_2" function="internal">
        <lane id=":J26_2_0" index="0" speed="13.89" length="11.14" shape="-107.64,90.44 -96.51,90.42"/>
        <lane id=":J26_2_1" index="1" speed="13.89" length="11.14" shape="-107.64,93.64 -96.49,93.62"/>
    </edge>
    <edge id=":J27_0" function="internal">
        <lane id=":J27_0_0" index="0" speed="13.89" length="11.20" shape="-101.60,304.00 -101.60,292.80"/>
    </edge>
    <edge id=":J27_1" function="internal">
        <lane id=":J27_1_0" index="0" speed="6.51" length="9.03" shape="-101.60,304.00 -101.25,301.55 -100.20,299.80 -98.45,298.75 -96.00,298.40"/>
    </edge>
    <edge id=":J28_0" function="internal">
        <lane id=":J28_0_0" index="0" speed="13.89" length="11.20" shape="-1.60,304.00 -1.60,292.80"/>
    </edge>
    <edge id=":J28_1" function="internal">
        <lane id=":J28_1_0" index="0" speed="13.89" length="11.20" shape="1.60,292.80 1.60,304.00"/>
    </edge>
    <edge id=":J28_2" function="internal">
        <lane id=":J28_2_0" index="0" speed="6.51" length="9.03" shape="-7.20,298.40 -4.75,298.05 -3.00,297.00 -1.95,295.25 -1.60,292.80"/>
    </edge>
    <edge id=":J28_3" function="internal">
        <lane id=":J28_3_0" index="0" speed="7.33" length="11.73" shape="-7.20,298.40 -3.35,298.75 -0.60,299.80 1.05,301.55 1.60,304.00"/>
    </edge>
    <edge id=":J29_0" function="internal">
        <lane id=":J29_0_0" index="0" speed="13.89" length="13.48" shape="-125.21,-8.65 -121.43,-9.14 -119.09,-10.48 -116.96,-12.50 -113.82,-15.05"/>
        <lane id=":J29_0_1" index="1" speed="13.89" length="14.07" shape="-125.21,-8.65 -121.05,-8.70 -118.17,-9.09 -115.51,-10.19 -112.02,-12.40"/>
    </edge>
    <edge id=":J29_2" function="internal">
        <lane id=":J29_2_0" index="0" speed="13.89" length="14.33" shape="-125.21,-8.65 -110.87,-8.63"/>
        <lane id=":J29_2_1" index="1" speed="13.89" length="14.33" shape="-125.20,-5.45 -110.87,-5.43"/>
        <lane id=":J29_2_2" index="2" speed="13.89" length="14.33" shape="-125.19,-2.25 -110.87,-2.23"/>
    </edge>
    <edge id=":J3_0" function="internal">
        <lane id=":J3_0_0" index="0" speed="6.52" length="9.06" shape="-5.24,-78.32 -5.59,-80.79 -6.64,-82.55 -8.39,-83.61 -10.84,-83.96"/>
    </edge>
    <edge id=":J3_1" function="internal">
        <lane id=":J3_1_0" index="0" speed="13.89" length="14.45" shape="-5.24,-78.32 -5.22,-92.78"/>
        <lane id=":J3_1_1" index="1" speed="13.89" length="14.45" shape="-2.04,-78.32 -2.02,-92.76"/>
    </edge>
    <edge id=":J3_3" function="internal">
        <lane id=":J3_3_0" index="0" speed="6.49" length="9.03" shape="9.97,-83.89 7.51,-83.55 5.76,-82.51 4.71,-80.77 4.36,-78.32"/>
    </edge>
    <edge id=":J3_4" function="internal">
        <lane id=":J3_4_0" index="0" speed="13.89" length="20.82" shape="9.97,-83.89 -10.84,-83.96"/>
        <lane id=":J3_4_1" index="1" speed="13.89" length="20.82" shape="9.99,-87.09 -10.84,-87.16"/>
    </edge>
    <edge id=":J3_6" function="internal">
        <lane id=":J3_6_0" index="0" speed="8.11" length="14.60" shape="9.99,-87.09 4.73,-87.47 0.97,-88.55 -1.28,-90.31 -2.02,-92.76"/>
    </edge>
    <edge id=":J3_7" function="internal">
        <lane id=":J3_7_0" index="0" speed="13.89" length="14.42" shape="4.38,-92.72 4.36,-78.32"/>
        <lane id=":J3_7_1" index="1" speed="13.89" length="14.42" shape="1.18,-92.74 1.16,-78.32"/>
    </edge>
    <edge id=":J3_9" function="internal">
        <lane id=":J3_9_0" index="0" speed="8.11" length="2.36" shape="1.18,-92.74 0.48,-90.49"/>
    </edge>
    <edge id=":J3_10" function="internal">
        <lane id=":J3_10_0" index="0" speed="8.11" length="12.21" shape="0.48,-90.49 0.42,-90.30 -1.84,-88.56 -5.59,-87.51 -10.84,-87.16"/>
    </edge>
    <edge id=":J30_0" function="internal">
        <lane id=":J30_0_0" index="0" speed="6.49" length="9.03" shape="-4.43,55.35 -4.78,52.90 -5.84,51.16 -7.59,50.12 -10.05,49.79"/>
    </edge>
    <edge id=":J30_1" function="internal">
        <lane id=":J30_1_0" index="0" speed="13.89" length="17.77" shape="-4.43,55.35 -4.50,37.73"/>
        <lane id=":J30_1_1" index="1" speed="13.89" length="17.77" shape="-1.23,55.35 -1.72,50.08 -2.82,46.54 -3.93,43.00 -4.50,37.73"/>
        <lane id=":J30_1_2" index="2" speed="13.89" length="17.77" shape="-1.23,55.35 -1.30,37.68"/>
    </edge>
    <edge id=":J30_4" function="internal">
        <lane id=":J30_4_0" index="0" speed="6.55" length="9.14" shape="10.81,49.63 8.34,50.00 6.58,51.08 5.52,52.86 5.17,55.35"/>
        <lane id=":J30_4_1" index="1" speed="7.37" length="11.83" shape="10.81,49.63 6.94,50.01 4.18,51.08 2.52,52.87 1.97,55.35"/>
    </edge>
    <edge id=":J30_6" function="internal">
        <lane id=":J30_6_0" index="0" speed="9.35" length="19.63" shape="10.79,46.43 4.15,45.92 -0.61,44.30 -3.49,41.57 -4.50,37.73"/>
        <lane id=":J30_6_1" index="1" speed="8.13" length="14.60" shape="10.77,43.23 5.52,42.91 1.76,41.88 -0.51,40.14 -1.30,37.68"/>
    </edge>
    <edge id=":J30_8" function="internal">
        <lane id=":J30_8_0" index="0" speed="13.89" length="17.75" shape="5.10,37.59 5.17,55.35"/>
    </edge>
    <edge id=":J30_9" function="internal">
        <lane id=":J30_9_0" index="0" speed="9.33" length="7.83" shape="5.10,37.59 4.20,41.47 1.46,44.17"/>
    </edge>
    <edge id=":J30_10" function="internal">
        <lane id=":J30_10_0" index="0" speed="13.89" length="17.71" shape="1.90,37.64 1.97,55.35"/>
    </edge>
    <edge id=":J30_11" function="internal">
        <lane id=":J30_11_0" index="0" speed="8.11" length="2.40" shape="1.90,37.64 1.23,39.94"/>
    </edge>
    <edge id=":J30_12" function="internal">
        <lane id=":J30_12_0" index="0" speed="9.33" length="11.91" shape="1.46,44.17 1.37,44.27 -3.39,45.97 -10.08,46.59"/>
    </edge>
    <edge id=":J30_13" function="internal">
        <lane id=":J30_13_0" index="0" speed="8.11" length="12.26" shape="1.23,39.94 1.18,40.11 -1.06,41.90 -4.83,42.99 -10.11,43.39"/>
    </edge>
    <edge id=":J31_0" function="internal">
        <lane id=":J31_0_0" index="0" speed="13.89" length="17.62" shape="-5.23,-34.16 -5.25,-51.78"/>
    </edge>
    <edge id=":J31_1" function="internal">
        <lane id=":J31_1_0" index="0" speed="9.29" length="7.82" shape="-5.23,-34.16 -4.31,-38.06 -1.57,-40.72"/>
    </edge>
    <edge id=":J31_2" function="internal">
        <lane id=":J31_2_0" index="0" speed="13.89" length="17.60" shape="-2.03,-34.18 -2.05,-51.78"/>
    </edge>
    <edge id=":J31_3" function="internal">
        <lane id=":J31_3_0" index="0" speed="8.06" length="2.40" shape="-2.03,-34.18 -1.35,-36.49"/>
    </edge>
    <edge id=":J31_12" function="internal">
        <lane id=":J31_12_0" index="0" speed="9.29" length="11.86" shape="-1.57,-40.72 -1.47,-40.83 3.28,-42.47 9.95,-42.98"/>
    </edge>
    <edge id=":J31_13" function="internal">
        <lane id=":J31_13_0" index="0" speed="8.06" length="12.17" shape="-1.35,-36.49 -1.30,-36.66 0.94,-38.42 4.68,-39.46 9.93,-39.78"/>
    </edge>
    <edge id=":J31_4" function="internal">
        <lane id=":J31_4_0" index="0" speed="6.53" length="9.04" shape="4.35,-51.78 4.70,-49.34 5.75,-47.60 7.51,-46.54 9.97,-46.18"/>
    </edge>
    <edge id=":J31_5" function="internal">
        <lane id=":J31_5_0" index="0" speed="13.89" length="17.69" shape="4.35,-51.78 4.37,-34.22"/>
        <lane id=":J31_5_1" index="1" speed="13.89" length="17.69" shape="1.15,-51.78 1.64,-46.53 2.73,-43.00 3.84,-39.48 4.37,-34.22"/>
        <lane id=":J31_5_2" index="2" speed="13.89" length="17.69" shape="1.15,-51.78 1.17,-34.20"/>
    </edge>
    <edge id=":J31_8" function="internal">
        <lane id=":J31_8_0" index="0" speed="6.56" length="9.10" shape="-10.92,-46.14 -8.44,-46.51 -6.67,-47.58 -5.61,-49.34 -5.25,-51.78"/>
        <lane id=":J31_8_1" index="1" speed="7.37" length="11.78" shape="-10.92,-46.14 -7.04,-46.52 -4.27,-47.60 -2.61,-49.35 -2.05,-51.78"/>
    </edge>
    <edge id=":J31_10" function="internal">
        <lane id=":J31_10_0" index="0" speed="9.31" length="19.66" shape="-10.89,-42.94 -4.23,-42.45 0.52,-40.84 3.39,-38.10 4.37,-34.22"/>
        <lane id=":J31_10_1" index="1" speed="8.09" length="14.58" shape="-10.85,-39.74 -5.61,-39.44 -1.86,-38.42 0.40,-36.67 1.17,-34.20"/>
    </edge>
    <edge id=":J33_0" function="internal">
        <lane id=":J33_0_0" index="0" speed="13.89" length="15.00" shape="125.94,15.96 121.70,16.47 119.03,17.85 116.55,19.92 112.88,22.50"/>
        <lane id=":J33_0_1" index="1" speed="13.89" length="15.49" shape="125.94,15.96 121.37,16.02 118.21,16.42 115.24,17.53 111.25,19.74"/>
    </edge>
    <edge id=":J33_2" function="internal">
        <lane id=":J33_2_0" index="0" speed="13.89" length="15.71" shape="125.94,15.96 110.23,16.01"/>
        <lane id=":J33_2_1" index="1" speed="13.89" length="15.71" shape="125.94,12.76 110.22,12.81"/>
        <lane id=":J33_2_2" index="2" speed="13.89" length="15.71" shape="125.93,9.56 110.21,9.61"/>
    </edge>
    <edge id=":J34_0" function="internal">
        <lane id=":J34_0_0" index="0" speed="13.89" length="15.60" shape="-113.12,23.25 -116.74,20.71 -119.19,18.68 -121.83,17.32 -126.00,16.81"/>
        <lane id=":J34_0_1" index="1" speed="13.89" length="15.60" shape="-111.50,20.49 -115.55,17.71 -118.33,15.54 -121.31,14.13 -125.99,13.61"/>
    </edge>
    <edge id=":J34_2" function="internal">
        <lane id=":J34_2_0" index="0" speed="13.89" length="15.48" shape="-110.49,16.74 -126.00,16.81"/>
        <lane id=":J34_2_1" index="1" speed="13.89" length="15.48" shape="-110.50,13.54 -125.99,13.61"/>
        <lane id=":J34_2_2" index="2" speed="13.89" length="15.48" shape="-110.51,10.34 -125.97,10.41"/>
    </edge>
    <edge id=":J36_0" function="internal">
        <lane id=":J36_0_0" index="0" speed="11.50" length="5.78" shape="70.38,-45.75 72.33,-45.26 73.30,-44.06 74.16,-42.49 75.76,-40.87"/>
        <lane id=":J36_0_1" index="1" speed="10.09" length="5.78" shape="70.35,-42.55 72.06,-42.50 73.24,-42.30 74.33,-41.80 75.76,-40.87"/>
        <lane id=":J36_0_2" index="2" speed="8.35" length="5.78" shape="70.33,-39.35 71.48,-39.32 72.27,-39.18 73.00,-38.85 73.96,-38.22"/>
    </edge>
    <edge id=":J37_0" function="internal">
        <lane id=":J37_0_0" index="0" speed="12.23" length="5.59" shape="-69.40,50.38 -71.28,49.93 -72.23,48.76 -73.09,47.25 -74.70,45.78"/>
        <lane id=":J37_0_1" index="1" speed="10.70" length="5.59" shape="-69.43,47.18 -71.08,47.17 -72.21,47.01 -73.27,46.59 -74.70,45.78"/>
        <lane id=":J37_0_2" index="2" speed="8.94" length="5.59" shape="-69.46,43.98 -70.59,43.98 -71.37,43.87 -72.10,43.57 -73.08,43.02"/>
    </edge>
    <edge id=":J38_0" function="internal">
        <lane id=":J38_0_0" index="0" speed="12.50" length="5.53" shape="75.16,44.66 73.58,46.12 72.75,47.63 71.84,48.80 69.99,49.29"/>
        <lane id=":J38_0_1" index="1" speed="10.92" length="5.53" shape="73.54,41.90 69.97,46.09"/>
        <lane id=":J38_0_2" index="2" speed="9.15" length="5.53" shape="73.54,41.90 72.57,42.45 71.84,42.74 71.07,42.86 69.95,42.89"/>
    </edge>
    <edge id=":J39_0" function="internal">
        <lane id=":J39_0_0" index="0" speed="11.55" length="5.71" shape="-76.25,-40.59 -74.66,-42.20 -73.81,-43.78 -72.84,-44.98 -70.90,-45.48"/>
        <lane id=":J39_0_1" index="1" speed="9.99" length="5.71" shape="-74.45,-37.94 -70.86,-42.28"/>
        <lane id=":J39_0_2" index="2" speed="8.39" length="5.71" shape="-74.45,-37.94 -73.49,-38.56 -72.76,-38.90 -71.97,-39.04 -70.83,-39.08"/>
    </edge>
    <edge id=":J6_0" function="internal">
        <lane id=":J6_0_0" index="0" speed="13.89" length="0.30" shape="4.63,-140.24 4.63,-139.93"/>
        <lane id=":J6_0_1" index="1" speed="13.89" length="0.30" shape="1.43,-140.25 1.43,-139.95"/>
    </edge>
    <edge id=":J6_2" function="internal">
        <lane id=":J6_2_0" index="0" speed="13.89" length="0.30" shape="-4.97,-139.99 -4.97,-140.28"/>
        <lane id=":J6_2_1" index="1" speed="13.89" length="0.30" shape="-1.77,-139.97 -1.77,-140.27"/>
    </edge>
    <edge id=":J8_0" function="internal">
        <lane id=":J8_0_0" index="0" speed="13.89" length="0.30" shape="-101.60,200.15 -101.60,199.85"/>
    </edge>
    <edge id=":J9_0" function="internal">
        <lane id=":J9_0_0" index="0" speed="13.89" length="0.30" shape="110.67,-83.20 110.36,-83.20"/>
        <lane id=":J9_0_1" index="1" speed="13.89" length="0.30" shape="110.67,-86.40 110.38,-86.40"/>
    </edge>

    <edge id="-E0" from="J1" to="J14" priority="-1">
        <lane id="-E0_0" index="0" speed="13.89" length="31.85" shape="5.15,98.54 4.80,130.39"/>
        <lane id="-E0_1" index="1" speed="13.89" length="31.85" shape="1.96,98.50 1.60,130.35"/>
    </edge>
    <edge id="-E0.30" from="J14" to="J0" priority="-1">
        <lane id="-E0.30_0" index="0" speed="13.89" length="62.15" shape="4.80,130.65 4.80,192.80"/>
        <lane id="-E0.30_1" index="1" speed="13.89" length="62.15" shape="1.60,130.65 1.60,192.80"/>
    </edge>
    <edge id="-E00" from="J20" to="J19" priority="-1">
        <lane id="-E00_0" index="0" speed="13.89" length="89.60" shape="100.00,-198.40 10.40,-198.40"/>
    </edge>
    <edge id="-E10" from="J0" to="J28" priority="-1">
        <lane id="-E10_0" index="0" speed="13.89" length="85.60" shape="1.60,207.20 1.60,292.80"/>
    </edge>
    <edge id="-E100" from="J28" to="J11" priority="-1">
        <lane id="-E100_0" index="0" speed="13.89" length="96.00" shape="1.60,304.00 1.60,400.00"/>
    </edge>
    <edge id="-E12" from="J0" to="J13" priority="-1">
        <lane id="-E12_0" index="0" speed="13.89" length="89.60" shape="10.40,198.40 100.00,198.40"/>
    </edge>
    <edge id="-E16" from="J3" to="J6" priority="-1">
        <lane id="-E16_0" index="0" speed="13.89" length="47.21" shape="-5.22,-92.78 -4.97,-139.99"/>
        <lane id="-E16_1" index="1" speed="13.89" length="47.21" shape="-2.02,-92.76 -1.77,-139.97"/>
    </edge>
    <edge id="-E160" from="J6" to="J21" priority="-1">
        <lane id="-E160_0" index="0" speed="13.89" length="36.60" shape="-4.97,-140.28 -4.81,-176.89"/>
        <lane id="-E160_1" index="1" speed="13.89" length="36.60" shape="-1.77,-140.27 -1.61,-176.87"/>
    </edge>
    <edge id="-E160.47" from="J21" to="J19" priority="-1">
        <lane id="-E160.47_0" index="0" speed="13.89" length="7.74" shape="-4.80,-185.06 -4.80,-192.80"/>
        <lane id="-E160.47_1" index="1" speed="13.89" length="7.74" shape="-1.60,-185.06 -1.60,-192.80"/>
    </edge>
    <edge id="-E160.69" from="J19" to="J18" priority="-1">
        <lane id="-E160.69_0" index="0" speed="13.89" length="192.80" shape="-4.80,-207.20 -4.80,-400.00"/>
        <lane id="-E160.69_1" index="1" speed="13.89" length="192.80" shape="-1.60,-207.20 -1.60,-400.00"/>
    </edge>
    <edge id="-E20" from="J31" to="J2" priority="-1">
        <lane id="-E20_0" index="0" speed="13.89" length="36.99" shape="4.37,-34.22 4.60,2.77"/>
        <lane id="-E20_1" index="1" speed="13.89" length="36.99" shape="1.17,-34.20 1.40,2.79"/>
    </edge>
    <edge id="A" from="J26" to="J1" priority="-1">
        <lane id="A_0" index="0" speed="13.89" length="86.54" shape="-96.51,90.42 -9.97,89.72"/>
        <lane id="A_1" index="1" speed="13.89" length="86.54" shape="-96.49,93.62 -9.95,92.92"/>
    </edge>
    <edge id="B" from="J30" to="J1" priority="-1">
        <lane id="B_0" index="0" speed="13.89" length="28.74" shape="5.17,55.35 5.19,84.09"/>
        <lane id="B_1" index="1" speed="13.89" length="28.74" shape="1.97,55.35 1.99,84.09"/>
    </edge>
    <edge id="C" from="J14" to="J1" priority="-1">
        <lane id="C_0" index="0" speed="13.89" length="31.85" shape="-1.60,130.32 -1.24,98.46"/>
    </edge>
    <edge id="C1" from="J0" to="J14" priority="-1">
        <lane id="C1_0" index="0" speed="13.89" length="62.15" shape="-1.60,192.80 -1.60,130.65"/>
    </edge>
    <edge id="D" from="J38" to="J30" priority="-1">
        <lane id="D_0" index="0" speed="13.89" length="59.18" shape="69.99,49.29 10.81,49.63"/>
        <lane id="D_1" index="1" speed="13.89" length="59.18" shape="69.97,46.09 10.79,46.43"/>
        <lane id="D_2" index="2" speed="13.89" length="59.18" shape="69.95,42.89 10.77,43.23"/>
    </edge>
    <edge id="E" from="J1" to="J30" priority="-1">
        <lane id="E_0" index="0" speed="13.89" length="28.74" shape="-4.41,84.09 -4.43,55.35"/>
        <lane id="E_1" index="1" speed="13.89" length="28.74" shape="-1.21,84.09 -1.23,55.35"/>
    </edge>
    <edge id="E0" from="J19" to="J20" priority="-1">
        <lane id="E0_0" index="0" speed="13.89" length="89.60" shape="10.40,-201.60 100.00,-201.60"/>
    </edge>
    <edge id="E1" from="J21" to="J22" priority="-1">
        <lane id="E1_0" index="0" speed="13.89" length="70.28" shape="-9.09,-182.75 -67.75,-221.44"/>
    </edge>
    <edge id="E1.46" from="J30" to="J2" priority="-1">
        <lane id="E1.46_0" index="0" speed="13.89" length="34.57" shape="-4.50,37.73 -5.00,3.17"/>
        <lane id="E1.46_1" index="1" speed="13.89" length="34.57" shape="-1.30,37.68 -1.80,3.12"/>
    </edge>
    <edge id="E10" from="J11" to="J28" priority="-1">
        <lane id="E10_0" index="0" speed="13.89" length="96.00" shape="-1.60,400.00 -1.60,304.00"/>
    </edge>
    <edge id="E10.100" from="J28" to="J0" priority="-1">
        <lane id="E10.100_0" index="0" speed="13.89" length="85.60" shape="-1.60,292.80 -1.60,207.20"/>
    </edge>
    <edge id="E11" from="J12" to="J27" priority="-1">
        <lane id="E11_0" index="0" speed="13.89" length="96.00" shape="-101.60,400.00 -101.60,304.00"/>
    </edge>
    <edge id="E11.100" from="J27" to="J8" priority="-1">
        <lane id="E11.100_0" index="0" speed="13.89" length="92.65" shape="-101.60,292.80 -101.60,200.15"/>
    </edge>
    <edge id="E12" from="J13" to="J0" priority="-1">
        <lane id="E12_0" index="0" speed="13.89" length="89.60" shape="100.00,201.60 10.40,201.60"/>
    </edge>
    <edge id="E14" from="J16" to="J9" priority="-1">
        <lane id="E14_0" index="0" speed="13.89" length="290.51" shape="401.18,-83.07 110.67,-83.20"/>
        <lane id="E14_1" index="1" speed="13.89" length="290.51" shape="401.18,-86.27 110.67,-86.40"/>
    </edge>
    <edge id="E15" from="J3" to="J17" priority="-1">
        <lane id="E15_0" index="0" speed="13.89" length="387.83" shape="-10.84,-83.96 -398.67,-84.05"/>
        <lane id="E15_1" index="1" speed="13.89" length="387.83" shape="-10.84,-87.16 -398.67,-87.25"/>
    </edge>
    <edge id="E16" from="J18" to="J19" priority="-1">
        <lane id="E16_0" index="0" speed="13.89" length="192.80" shape="4.80,-400.00 4.80,-207.20"/>
        <lane id="E16_1" index="1" speed="13.89" length="192.80" shape="1.60,-400.00 1.60,-207.20"/>
    </edge>
    <edge id="E160" from="J19" to="J21" priority="-1">
        <lane id="E160_0" index="0" speed="13.89" length="7.74" shape="4.80,-192.80 4.80,-185.06"/>
        <lane id="E160_1" index="1" speed="13.89" length="7.74" shape="1.60,-192.80 1.60,-185.06"/>
    </edge>
    <edge id="E1600" from="J21" to="J6" priority="-1">
        <lane id="E1600_0" index="0" speed="13.89" length="36.60" shape="4.79,-176.84 4.63,-140.24"/>
        <lane id="E1600_1" index="1" speed="13.89" length="36.60" shape="1.59,-176.86 1.43,-140.25"/>
    </edge>
    <edge id="E25" from="J8" to="J26" priority="-1">
        <lane id="E25_0" index="0" speed="13.89" length="100.61" shape="-101.60,199.85 -102.04,99.24"/>
    </edge>
    <edge id="E26" from="J27" to="J28" priority="-1">
        <lane id="E26_0" index="0" speed="13.89" length="88.80" shape="-96.00,298.40 -7.20,298.40"/>
    </edge>
    <edge id="E29" from="J29" to="J39" priority="-1">
        <lane id="E29_0" index="0" speed="13.89" length="45.43" shape="-113.82,-15.05 -76.25,-40.59"/>
        <lane id="E29_1" index="1" speed="13.89" length="45.43" shape="-112.02,-12.40 -74.45,-37.94"/>
    </edge>
    <edge id="E3" from="J4" to="J29" priority="-1">
        <lane id="E3_0" index="0" speed="13.89" length="274.81" shape="-400.02,-8.00 -125.21,-8.65"/>
        <lane id="E3_1" index="1" speed="13.89" length="274.81" shape="-400.01,-4.80 -125.20,-5.45"/>
        <lane id="E3_2" index="2" speed="13.89" length="274.81" shape="-400.00,-1.60 -125.19,-2.25"/>
    </edge>
    <edge id="E3.300" from="J29" to="J25" priority="-1">
        <lane id="E3.300_0" index="0" speed="13.89" length="222.05" shape="-110.87,-8.63 111.18,-8.36"/>
        <lane id="E3.300_1" index="1" speed="13.89" length="222.05" shape="-110.87,-5.43 111.18,-5.16"/>
        <lane id="E3.300_2" index="2" speed="13.89" length="222.05" shape="-110.87,-2.23 111.17,-1.96"/>
    </edge>
    <edge id="E3.498" from="J25" to="J5" priority="-1">
        <lane id="E3.498_0" index="0" speed="13.89" length="274.42" shape="125.59,-8.34 400.01,-8.00"/>
        <lane id="E3.498_1" index="1" speed="13.89" length="274.42" shape="125.58,-5.14 400.01,-4.80"/>
        <lane id="E3.498_2" index="2" speed="13.89" length="274.42" shape="125.58,-1.94 400.00,-1.60"/>
    </edge>
    <edge id="E30" from="J31" to="J36" priority="-1">
        <lane id="E30_0" index="0" speed="13.89" length="60.41" shape="9.97,-46.18 70.38,-45.75"/>
        <lane id="E30_1" index="1" speed="13.89" length="60.41" shape="9.95,-42.98 70.35,-42.55"/>