<?xml version="1.0" encoding="UTF-8"?>

<!-- generated on 2024-04-12 11:33:08 by Eclipse SUMO netedit Version 1.18.0
<configuration xmlns:xsi="http://www.w3.org/2001/XMLSchema-instance" xsi:noNamespaceSchemaLocation="http://sumo.dlr.de/xsd/neteditConfiguration.xsd">

    <input>
        <sumo-net-file value="D:\Repositorios_GitHub\Tesis-Implementacion\SUMO\MapaDe0\red.net.xml"/>
    </input>

    <output>
        <output-file value="D:\Repositorios_GitHub\Tesis-Implementacion\SUMO\MapaDe0\red.net.xml"/>
    </output>

    <processing>
        <geometry.min-radius.fix.railways value="false"/>
        <geometry.max-grade.fix value="false"/>
        <offset.disable-normalization value="true"/>
        <lefthand value="0"/>
    </processing>

    <junctions>
        <no-turnarounds value="true"/>
        <junctions.corner-detail value="5"/>
        <junctions.limit-turn-speed value="5.50"/>
        <rectangular-lane-cut value="0"/>
    </junctions>

    <pedestrian>
        <walkingareas value="0"/>
    </pedestrian>

</configuration>
-->

<net version="1.16" junctionCornerDetail="5" limitTurnSpeed="5.50" xmlns:xsi="http://www.w3.org/2001/XMLSchema-instance" xsi:noNamespaceSchemaLocation="http://sumo.dlr.de/xsd/net_file.xsd">

    <location netOffset="0.00,0.00" convBoundary="-400.35,-400.00,401.18,400.00" origBoundary="-10000000000.00,-10000000000.00,10000000000.00,10000000000.00" projParameter="!"/>

    <edge id=":J0_0" function="internal">
        <lane id=":J0_0_0" index="0" speed="13.89" length="14.40" shape="-1.60,207.20 -1.60,192.80"/>
    </edge>
    <edge id=":J0_1" function="internal">
        <lane id=":J0_1_0" index="0" speed="8.67" length="3.71" shape="-1.60,207.20 -0.89,203.56"/>
    </edge>
    <edge id=":J0_6" function="internal">
        <lane id=":J0_6_0" index="0" speed="8.67" length="13.14" shape="-0.89,203.56 -0.85,203.35 1.40,200.60 5.15,198.95 10.40,198.40"/>
    </edge>
    <edge id=":J0_2" function="internal">
        <lane id=":J0_2_0" index="0" speed="7.33" length="11.73" shape="10.40,201.60 6.55,201.95 3.80,203.00 2.15,204.75 1.60,207.20"/>
    </edge>
    <edge id=":J0_3" function="internal">
        <lane id=":J0_3_0" index="0" speed="8.67" length="16.85" shape="10.40,201.60 5.15,201.05 1.40,199.40 -0.85,196.65 -1.60,192.80"/>
    </edge>
    <edge id=":J0_4" function="internal">
        <lane id=":J0_4_0" index="0" speed="6.51" length="9.03" shape="4.80,192.80 5.15,195.25 6.20,197.00 7.95,198.05 10.40,198.40"/>
    </edge>
    <edge id=":J0_5" function="internal">
        <lane id=":J0_5_0" index="0" speed="13.89" length="14.40" shape="1.60,192.80 1.60,207.20"/>
    </edge>
    <edge id=":J1_0" function="internal">
        <lane id=":J1_0_0" index="0" speed="6.52" length="9.03" shape="5.19,84.09 5.54,86.53 6.60,88.27 8.35,89.32 10.80,89.68"/>
        <lane id=":J1_0_1" index="1" speed="7.33" length="11.71" shape="5.19,84.09 5.54,87.93 6.59,90.67 8.34,92.32 10.79,92.88"/>
    </edge>
    <edge id=":J1_2" function="internal">
        <lane id=":J1_2_0" index="0" speed="13.89" length="14.43" shape="5.19,84.09 5.15,98.54"/>
        <lane id=":J1_2_1" index="1" speed="13.89" length="14.43" shape="1.99,84.09 1.96,98.50"/>
    </edge>
    <edge id=":J1_4" function="internal">
        <lane id=":J1_4_0" index="0" speed="6.52" length="9.01" shape="-9.97,89.72 -7.54,89.35 -5.80,88.29 -4.75,86.54 -4.41,84.09"/>
    </edge>
    <edge id=":J1_5" function="internal">
        <lane id=":J1_5_0" index="0" speed="13.89" length="20.77" shape="-9.97,89.72 10.80,89.68"/>
    </edge>
    <edge id=":J1_6" function="internal">
        <lane id=":J1_6_0" index="0" speed="8.01" length="4.01" shape="-9.95,92.92 -6.12,92.34 -6.00,92.27"/>
    </edge>
    <edge id=":J1_7" function="internal">
        <lane id=":J1_7_0" index="0" speed="13.89" length="20.73" shape="-9.95,92.92 10.79,92.88"/>
    </edge>
    <edge id=":J1_8" function="internal">
        <lane id=":J1_8_0" index="0" speed="8.03" length="14.52" shape="-9.95,92.92 -4.72,93.24 -0.99,94.27 1.23,96.02 1.96,98.50"/>
    </edge>
    <edge id=":J1_11" function="internal">
        <lane id=":J1_11_0" index="0" speed="8.01" length="10.14" shape="-6.00,92.27 -3.39,90.68 -1.75,87.93 -1.21,84.09"/>
    </edge>
    <edge id=":J1_9" function="internal">
        <lane id=":J1_9_0" index="0" speed="13.89" length="14.59" shape="-1.24,98.46 -1.71,95.14 -2.80,92.16 -3.90,88.74 -4.41,84.09"/>
        <lane id=":J1_9_1" index="1" speed="13.89" length="14.59" shape="-1.24,98.46 -1.21,84.09"/>
    </edge>
    <edge id=":J14_0" function="internal">
        <lane id=":J14_0_0" index="0" speed="13.89" length="0.33" shape="-1.60,130.65 -1.60,130.32"/>
    </edge>
    <edge id=":J14_1" function="internal">
        <lane id=":J14_1_0" index="0" speed="13.89" length="0.28" shape="4.80,130.39 4.80,130.65"/>
        <lane id=":J14_1_1" index="1" speed="13.89" length="0.28" shape="1.60,130.35 1.60,130.65"/>
    </edge>
    <edge id=":J19_0" function="internal">
        <lane id=":J19_0_0" index="0" speed="13.89" length="14.40" shape="-4.80,-192.80 -4.80,-207.20"/>
        <lane id=":J19_0_1" index="1" speed="13.89" length="14.40" shape="-1.60,-192.80 -1.60,-207.20"/>
    </edge>
    <edge id=":J19_2" function="internal">
        <lane id=":J19_2_0" index="0" speed="8.67" length="3.71" shape="-1.60,-192.80 -0.89,-196.44"/>
    </edge>
    <edge id=":J19_8" function="internal">
        <lane id=":J19_8_0" index="0" speed="8.67" length="13.14" shape="-0.89,-196.44 -0.85,-196.65 1.40,-199.40 5.15,-201.05 10.40,-201.60"/>
    </edge>
    <edge id=":J19_3" function="internal">
        <lane id=":J19_3_0" index="0" speed="6.51" length="9.03" shape="10.40,-198.40 7.95,-198.05 6.20,-197.00 5.15,-195.25 4.80,-192.80"/>
    </edge>
    <edge id=":J19_4" function="internal">
        <lane id=":J19_4_0" index="0" speed="8.67" length="16.85" shape="10.40,-198.40 5.15,-198.95 1.40,-200.60 -0.85,-203.35 -1.60,-207.20"/>
    </edge>
    <edge id=":J19_5" function="internal">
        <lane id=":J19_5_0" index="0" speed="6.51" length="9.03" shape="4.80,-207.20 5.15,-204.75 6.20,-203.00 7.95,-201.95 10.40,-201.60"/>
    </edge>
    <edge id=":J19_6" function="internal">
        <lane id=":J19_6_0" index="0" speed="13.89" length="14.40" shape="4.80,-207.20 4.80,-192.80"/>
        <lane id=":J19_6_1" index="1" speed="13.89" length="14.40" shape="1.60,-207.20 1.60,-192.80"/>
    </edge>
    <edge id=":J2_0" function="internal">
        <lane id=":J2_0_0" index="0" speed="13.89" length="0.32" shape="-5.00,3.17 -5.00,2.83"/>
        <lane id=":J2_0_1" index="1" speed="13.89" length="0.32" shape="-1.80,3.12 -1.80,2.81"/>
    </edge>
    <edge id=":J2_2" function="internal">
        <lane id=":J2_2_0" index="0" speed="13.89" length="0.27" shape="4.60,2.77 4.60,3.03"/>
        <lane id=":J2_2_1" index="1" speed="13.89" length="0.27" shape="1.40,2.79 1.40,3.08"/>
    </edge>
    <edge id=":J21_0" function="internal">
        <lane id=":J21_0_0" index="0" speed="7.83" length="7.52" shape="-4.80,-176.90 -5.07,-178.40 -5.87,-179.87 -7.21,-181.32 -9.08,-182.74"/>
    </edge>
    <edge id=":J21_1" function="internal">
        <lane id=":J21_1_0" index="0" speed="13.89" length="8.14" shape="-4.80,-176.90 -4.80,-185.04"/>
        <lane id=":J21_1_1" index="1" speed="13.89" length="8.14" shape="-1.60,-176.90 -1.60,-185.04"/>
    </edge>
    <edge id=":J21_3" function="internal">
        <lane id=":J21_3_0" index="0" speed="13.89" length="8.14" shape="4.80,-185.04 4.80,-176.90"/>
        <lane id=":J21_3_1" index="1" speed="13.89" length="8.14" shape="1.60,-185.04 1.60,-176.90"/>
    </edge>
    <edge id=":J25_0" function="internal">
        <lane id=":J25_0_0" index="0" speed="13.89" length="21.37" shape="100.62,-15.49 105.79,-12.23 109.40,-9.77 113.25,-8.22 119.16,-7.69"/>
        <lane id=":J25_0_1" index="1" speed="13.89" length="21.37" shape="99.07,-12.69 104.37,-9.37 108.33,-6.77 112.68,-5.09 119.16,-4.49"/>
    </edge>
    <edge id=":J25_2" function="internal">
        <lane id=":J25_2_0" index="0" speed="13.89" length="21.39" shape="97.79,-7.77 119.16,-7.69"/>
        <lane id=":J25_2_1" index="1" speed="13.89" length="21.39" shape="97.78,-4.57 119.16,-4.49"/>
        <lane id=":J25_2_2" index="2" speed="13.89" length="21.39" shape="97.76,-1.37 119.17,-1.29"/>
    </edge>
    <edge id=":J26_0" function="internal">
        <lane id=":J26_0_0" index="0" speed="7.33" length="11.70" shape="-102.04,99.24 -101.71,95.40 -100.68,92.65 -98.95,90.99 -96.51,90.42"/>
        <lane id=":J26_0_1" index="1" speed="6.51" length="9.01" shape="-102.04,99.24 -101.70,96.80 -100.67,95.05 -98.93,93.99 -96.49,93.62"/>
    </edge>
    <edge id=":J26_2" function="internal">
        <lane id=":J26_2_0" index="0" speed="13.89" length="11.14" shape="-107.64,90.44 -96.51,90.42"/>
        <lane id=":J26_2_1" index="1" speed="13.89" length="11.14" shape="-107.64,93.64 -96.49,93.62"/>
    </edge>
    <edge id=":J27_0" function="internal">
        <lane id=":J27_0_0" index="0" speed="13.89" length="11.20" shape="-101.60,304.00 -101.60,292.80"/>
    </edge>
    <edge id=":J27_1" function="internal">
        <lane id=":J27_1_0" index="0" speed="6.51" length="9.03" shape="-101.60,304.00 -101.25,301.55 -100.20,299.80 -98.45,298.75 -96.00,298.40"/>
    </edge>
    <edge id=":J28_0" function="internal">
        <lane id=":J28_0_0" index="0" speed="13.89" length="11.20" shape="-1.60,304.00 -1.60,292.80"/>
    </edge>
    <edge id=":J28_1" function="internal">
        <lane id=":J28_1_0" index="0" speed="13.89" length="11.20" shape="1.60,292.80 1.60,304.00"/>
    </edge>
    <edge id=":J28_2" function="internal">
        <lane id=":J28_2_0" index="0" speed="6.51" length="9.03" shape="-7.20,298.40 -4.75,298.05 -3.00,297.00 -1.95,295.25 -1.60,292.80"/>
    </edge>
    <edge id=":J28_3" function="internal">
        <lane id=":J28_3_0" index="0" speed="7.33" length="11.73" shape="-7.20,298.40 -3.35,298.75 -0.60,299.80 1.05,301.55 1.60,304.00"/>
    </edge>
    <edge id=":J29_0" function="internal">
        <lane id=":J29_0_0" index="0" speed="13.89" length="21.15" shape="-125.69,-8.65 -119.55,-9.21 -115.49,-10.77 -111.71,-13.17 -106.39,-16.27"/>
        <lane id=":J29_0_1" index="1" speed="13.89" length="21.64" shape="-125.69,-8.65 -119.21,-8.77 -114.66,-9.34 -110.44,-10.76 -104.94,-13.42"/>
    </edge>
    <edge id=":J29_2" function="internal">
        <lane id=":J29_2_0" index="0" speed="13.89" length="21.89" shape="-125.69,-8.65 -103.78,-8.56"/>
        <lane id=":J29_2_1" index="1" speed="13.89" length="21.89" shape="-125.69,-5.45 -103.79,-5.36"/>
        <lane id=":J29_2_2" index="2" speed="13.89" length="21.89" shape="-125.68,-2.25 -103.81,-2.16"/>
    </edge>
    <edge id=":J3_0" function="internal">
        <lane id=":J3_0_0" index="0" speed="6.51" length="9.03" shape="-5.24,-78.36 -5.59,-80.81 -6.64,-82.56 -8.39,-83.61 -10.84,-83.96"/>
    </edge>
    <edge id=":J3_1" function="internal">
        <lane id=":J3_1_0" index="0" speed="13.89" length="14.54" shape="-5.24,-78.36 -5.20,-92.91"/>
        <lane id=":J3_1_1" index="1" speed="13.89" length="14.54" shape="-2.04,-78.36 -2.00,-92.88"/>
    </edge>
    <edge id=":J3_3" function="internal">
        <lane id=":J3_3_0" index="0" speed="6.54" length="9.09" shape="9.99,-84.02 7.52,-83.65 5.76,-82.59 4.71,-80.82 4.36,-78.36"/>
    </edge>
    <edge id=":J3_4" function="internal">
        <lane id=":J3_4_0" index="0" speed="13.89" length="20.82" shape="9.99,-84.02 -10.84,-83.96"/>
        <lane id=":J3_4_1" index="1" speed="13.89" length="20.82" shape="9.97,-87.22 -10.84,-87.16"/>
    </edge>
    <edge id=":J3_6" function="internal">
        <lane id=":J3_6_0" index="0" speed="8.07" length="14.62" shape="9.97,-87.22 4.71,-87.55 0.96,-88.60 -1.27,-90.38 -2.00,-92.88"/>
    </edge>
    <edge id=":J3_7" function="internal">
        <lane id=":J3_7_0" index="0" speed="13.89" length="14.47" shape="4.40,-92.81 4.36,-78.36"/>
        <lane id=":J3_7_1" index="1" speed="13.89" length="14.47" shape="1.20,-92.85 1.16,-78.36"/>
    </edge>
    <edge id=":J3_9" function="internal">
        <lane id=":J3_9_0" index="0" speed="8.15" length="2.40" shape="1.20,-92.85 0.49,-90.56"/>
    </edge>
    <edge id=":J3_10" function="internal">
        <lane id=":J3_10_0" index="0" speed="8.15" length="12.25" shape="0.49,-90.56 0.43,-90.36 -1.84,-88.58 -5.59,-87.52 -10.84,-87.16"/>
    </edge>
    <edge id=":J30_0" function="internal">
        <lane id=":J30_0_0" index="0" speed="6.50" length="9.03" shape="-4.43,55.32 -4.78,52.87 -5.83,51.13 -7.59,50.08 -10.04,49.75"/>
    </edge>
    <edge id=":J30_1" function="internal">
        <lane id=":J30_1_0" index="0" speed="13.89" length="17.77" shape="-4.43,55.32 -4.50,37.70"/>
        <lane id=":J30_1_1" index="1" speed="13.89" length="17.77" shape="-1.23,55.32 -1.73,50.05 -2.82,46.51 -3.93,42.98 -4.50,37.70"/>
        <lane id=":J30_1_2" index="2" speed="13.89" length="17.77" shape="-1.23,55.32 -1.30,37.66"/>
    </edge>
    <edge id=":J30_4" function="internal">
        <lane id=":J30_4_0" index="0" speed="6.51" length="9.05" shape="10.77,49.69 8.32,50.05 6.57,51.10 5.52,52.86 5.17,55.32"/>
        <lane id=":J30_4_1" index="1" speed="7.33" length="11.74" shape="10.77,49.69 6.92,50.04 4.17,51.10 2.52,52.86 1.97,55.32"/>
    </edge>
    <edge id=":J30_6" function="internal">
        <lane id=":J30_6_0" index="0" speed="9.37" length="19.64" shape="10.77,46.49 4.14,45.94 -0.62,44.29 -3.50,41.55 -4.50,37.70"/>
        <lane id=":J30_6_1" index="1" speed="8.16" length="14.63" shape="10.77,43.29 5.52,42.94 1.76,41.88 -0.51,40.12 -1.30,37.66"/>
    </edge>
    <edge id=":J30_8" function="internal">
        <lane id=":J30_8_0" index="0" speed="13.89" length="17.75" shape="5.10,37.56 5.17,55.32"/>
    </edge>
    <edge id=":J30_9" function="internal">
        <lane id=":J30_9_0" index="0" speed="9.31" length="7.85" shape="5.10,37.56 4.20,41.46 1.47,44.17"/>
    </edge>
    <edge id=":J30_10" function="internal">
        <lane id=":J30_10_0" index="0" speed="13.89" length="17.71" shape="1.90,37.61 1.97,55.32"/>
    </edge>
    <edge id=":J30_11" function="internal">
        <lane id=":J30_11_0" index="0" speed="8.09" length="2.41" shape="1.90,37.61 1.23,39.93"/>
    </edge>
    <edge id=":J30_12" function="internal">
        <lane id=":J30_12_0" index="0" speed="9.31" length="11.88" shape="1.47,44.17 1.38,44.26 -3.38,45.95 -10.06,46.55"/>
    </edge>
    <edge id=":J30_13" function="internal">
        <lane id=":J30_13_0" index="0" speed="8.09" length="12.22" shape="1.23,39.93 1.18,40.10 -1.05,41.88 -4.81,42.96 -10.08,43.35"/>
    </edge>
    <edge id=":J31_0" function="internal">
        <lane id=":J31_0_0" index="0" speed="13.89" length="17.67" shape="-5.23,-34.17 -5.25,-51.84"/>
    </edge>
    <edge id=":J31_1" function="internal">
        <lane id=":J31_1_0" index="0" speed="9.30" length="7.81" shape="-5.23,-34.17 -4.31,-38.06 -1.57,-40.73"/>
    </edge>
    <edge id=":J31_2" function="internal">
        <lane id=":J31_2_0" index="0" speed="13.89" length="17.64" shape="-2.03,-34.19 -2.05,-51.84"/>
    </edge>
    <edge id=":J31_3" function="internal">
        <lane id=":J31_3_0" index="0" speed="8.08" length="2.40" shape="-2.03,-34.19 -1.35,-36.49"/>
    </edge>
    <edge id=":J31_12" function="internal">
        <lane id=":J31_12_0" index="0" speed="9.30" length="11.86" shape="-1.57,-40.73 -1.47,-40.83 3.28,-42.49 9.94,-43.03"/>
    </edge>
    <edge id=":J31_13" function="internal">
        <lane id=":J31_13_0" index="0" speed="8.08" length="12.19" shape="-1.35,-36.49 -1.30,-36.67 0.94,-38.43 4.69,-39.49 9.94,-39.83"/>
    </edge>
    <edge id=":J31_4" function="internal">
        <lane id=":J31_4_0" index="0" speed="6.51" length="9.03" shape="4.35,-51.84 4.69,-49.39 5.74,-47.64 7.50,-46.59 9.95,-46.23"/>
    </edge>
    <edge id=":J31_5" function="internal">
        <lane id=":J31_5_0" index="0" speed="13.89" length="17.74" shape="4.35,-51.84 4.37,-34.23"/>
        <lane id=":J31_5_1" index="1" speed="13.89" length="17.74" shape="1.15,-51.84 1.64,-46.57 2.73,-43.04 3.84,-39.50 4.37,-34.23"/>
        <lane id=":J31_5_2" index="2" speed="13.89" length="17.74" shape="1.15,-51.84 1.17,-34.21"/>
    </edge>
    <edge id=":J31_8" function="internal">
        <lane id=":J31_8_0" index="0" speed="6.52" length="9.04" shape="-10.87,-46.23 -8.41,-46.59 -6.66,-47.64 -5.61,-49.39 -5.25,-51.84"/>
        <lane id=":J31_8_1" index="1" speed="7.33" length="11.73" shape="-10.87,-46.23 -7.01,-46.59 -4.26,-47.64 -2.61,-49.39 -2.05,-51.84"/>
    </edge>
    <edge id=":J31_10" function="internal">
        <lane id=":J31_10_0" index="0" speed="9.34" length="19.64" shape="-10.86,-43.03 -4.22,-42.49 0.53,-40.85 3.39,-38.09 4.37,-34.23"/>
        <lane id=":J31_10_1" index="1" speed="8.12" length="14.60" shape="-10.86,-39.83 -5.61,-39.49 -1.86,-38.44 0.40,-36.68 1.17,-34.21"/>
    </edge>
    <edge id=":J33_0" function="internal">
        <lane id=":J33_0_0" index="0" speed="13.89" length="23.05" shape="119.12,15.43 112.28,16.06 107.62,17.75 103.37,20.22 97.80,23.17"/>
        <lane id=":J33_0_1" index="1" speed="13.89" length="23.45" shape="119.12,15.43 111.98,15.61 106.87,16.29 102.22,17.76 96.47,20.26"/>
    </edge>
    <edge id=":J33_2" function="internal">
        <lane id=":J33_2_0" index="0" speed="13.89" length="23.70" shape="119.12,15.43 95.44,15.57"/>
        <lane id=":J33_2_1" index="1" speed="13.89" length="23.70" shape="119.12,12.23 95.42,12.37"/>
        <lane id=":J33_2_2" index="2" speed="13.89" length="23.70" shape="119.12,9.03 95.40,9.17"/>
    </edge>
    <edge id=":J34_0" function="internal">
        <lane id=":J34_0_0" index="0" speed="13.89" length="23.93" shape="-104.26,24.26 -109.92,21.45 -114.26,19.09 -119.04,17.45 -125.99,16.81"/>
        <lane id=":J34_0_1" index="1" speed="13.89" length="23.93" shape="-103.00,21.32 -108.77,18.47 -113.39,16.02 -118.57,14.29 -125.97,13.61"/>
    </edge>
    <edge id=":J34_2" function="internal">
        <lane id=":J34_2_0" index="0" speed="13.89" length="23.89" shape="-102.06,16.66 -125.99,16.81"/>
        <lane id=":J34_2_1" index="1" speed="13.89" length="23.89" shape="-102.08,13.46 -125.97,13.61"/>
        <lane id=":J34_2_2" index="2" speed="13.89" length="23.89" shape="-102.10,10.26 -125.96,10.41"/>
    </edge>
    <edge id=":J36_0" function="internal">
        <lane id=":J36_0_0" index="0" speed="13.89" length="10.23" shape="45.67,-46.18 48.90,-45.66 50.84,-44.33 52.65,-42.49 55.48,-40.44"/>
        <lane id=":J36_0_1" index="1" speed="13.89" length="10.23" shape="45.67,-42.98 48.72,-42.92 50.81,-42.62 52.79,-41.87 55.48,-40.44"/>
        <lane id=":J36_0_2" index="2" speed="13.89" length="10.23" shape="45.67,-42.98 48.43,-42.47 50.03,-41.20 51.52,-39.47 53.93,-37.64"/>
        <lane id=":J36_0_3" index="3" speed="13.89" length="10.23" shape="45.66,-39.78 48.23,-39.73 50.00,-39.48 51.67,-38.84 53.93,-37.64"/>
    </edge>
    <edge id=":J37_0" function="internal">
        <lane id=":J37_0_0" index="0" speed="13.89" length="9.89" shape="-46.50,49.95 -49.59,49.46 -51.46,48.19 -53.25,46.52 -56.10,44.81"/>
        <lane id=":J37_0_1" index="1" speed="13.89" length="9.89" shape="-46.51,46.75 -49.44,46.73 -51.46,46.51 -53.39,45.93 -56.10,44.81"/>
        <lane id=":J37_0_2" index="2" speed="13.89" length="9.89" shape="-46.53,43.55 -49.07,43.53 -50.82,43.34 -52.50,42.84 -54.85,41.87"/>
    </edge>
    <edge id=":J38_0" function="internal">
        <lane id=":J38_0_0" index="0" speed="13.89" length="9.96" shape="51.20,44.42 48.36,46.21 46.57,47.92 44.69,49.20 41.57,49.71"/>
        <lane id=":J38_0_1" index="1" speed="13.89" length="9.96" shape="49.87,41.51 47.40,43.14 45.88,44.76 44.29,46.01 41.57,46.51"/>
        <lane id=":J38_0_2" index="2" speed="13.89" length="9.96" shape="49.87,41.51 47.54,42.53 45.86,43.07 44.12,43.28 41.57,43.31"/>
    </edge>
    <edge id=":J39_0" function="internal">
        <lane id=":J39_0_0" index="0" speed="13.89" length="10.09" shape="-58.61,-40.63 -55.78,-42.57 -53.98,-44.35 -52.06,-45.66 -48.88,-46.18"/>
        <lane id=":J39_0_1" index="1" speed="13.89" length="10.09" shape="-57.16,-37.78 -54.72,-39.53 -53.22,-41.21 -51.62,-42.47 -48.88,-42.98"/>
        <lane id=":J39_0_2" index="2" speed="13.89" length="10.09" shape="-57.16,-37.78 -54.86,-38.91 -53.19,-39.50 -51.43,-39.73 -48.87,-39.78"/>
    </edge>
    <edge id=":J6_0" function="internal">
        <lane id=":J6_0_0" index="0" speed="13.89" length="0.33" shape="4.80,-131.09 4.80,-130.74"/>
        <lane id=":J6_0_1" index="1" speed="13.89" length="0.33" shape="1.60,-131.09 1.60,-130.78"/>
    </edge>
    <edge id=":J6_2" function="internal">
        <lane id=":J6_2_0" index="0" speed="13.89" length="0.26" shape="-4.80,-130.84 -4.80,-131.09"/>
        <lane id=":J6_2_1" index="1" speed="13.89" length="0.26" shape="-1.60,-130.81 -1.60,-131.09"/>
    </edge>
    <edge id=":J8_0" function="internal">
        <lane id=":J8_0_0" index="0" speed="13.89" length="0.30" shape="-101.60,200.15 -101.60,199.85"/>
    </edge>
    <edge id=":J9_0" function="internal">
        <lane id=":J9_0_0" index="0" speed="13.89" length="0.30" shape="42.08,-84.20 41.80,-84.20"/>
        <lane id=":J9_0_1" index="1" speed="13.89" length="0.30" shape="42.09,-87.40 41.78,-87.40"/>
    </edge>

    <edge id="-E0" from="J1" to="J14" priority="-1">
        <lane id="-E0_0" index="0" speed="13.89" length="31.85" shape="5.15,98.54 4.80,130.39"/>
        <lane id="-E0_1" index="1" speed="13.89" length="31.85" shape="1.96,98.50 1.60,130.35"/>
    </edge>
    <edge id="-E0.30" from="J14" to="J0" priority="-1">
        <lane id="-E0.30_0" index="0" speed="13.89" length="62.15" shape="4.80,130.65 4.80,192.80"/>
        <lane id="-E0.30_1" index="1" speed="13.89" length="62.15" shape="1.60,130.65 1.60,192.80"/>
    </edge>
    <edge id="-E00" from="J20" to="J19" priority="-1">
        <lane id="-E00_0" index="0" speed="13.89" length="89.60" shape="100.00,-198.40 10.40,-198.40"/>
    </edge>
    <edge id="-E10" from="J0" to="J28" priority="-1">
        <lane id="-E10_0" index="0" speed="13.89" length="85.60" shape="1.60,207.20 1.60,292.80"/>
    </edge>
    <edge id="-E100" from="J28" to="J11" priority="-1">
        <lane id="-E100_0" index="0" speed="13.89" length="96.00" shape="1.60,304.00 1.60,400.00"/>
    </edge>
    <edge id="-E12" from="J0" to="J13" priority="-1">
        <lane id="-E12_0" index="0" speed="13.89" length="89.60" shape="10.40,198.40 100.00,198.40"/>
    </edge>
    <edge id="-E16" from="J3" to="J6" priority="-1">
        <lane id="-E16_0" index="0" speed="13.89" length="37.93" shape="-5.20,-92.91 -4.80,-130.84"/>
        <lane id="-E16_1" index="1" speed="13.89" length="37.93" shape="-2.00,-92.88 -1.60,-130.81"/>
    </edge>
    <edge id="-E160" from="J6" to="J21" priority="-1">
        <lane id="-E160_0" index="0" speed="13.89" length="45.82" shape="-4.80,-131.09 -4.80,-176.90"/>
        <lane id="-E160_1" index="1" speed="13.89" length="45.82" shape="-1.60,-131.09 -1.60,-176.90"/>
    </edge>
    <edge id="-E160.47" from="J21" to="J19" priority="-1">
        <lane id="-E160.47_0" index="0" speed="13.89" length="7.76" shape="-4.80,-185.04 -4.80,-192.80"/>
        <lane id="-E160.47_1" index="1" speed="13.89" length="7.76" shape="-1.60,-185.04 -1.60,-192.80"/>
    </edge>
    <edge id="-E160.69" from="J19" to="J18" priority="-1">
        <lane id="-E160.69_0" index="0" speed="13.89" length="192.80" shape="-4.80,-207.20 -4.80,-400.00"/>
        <lane id="-E160.69_1" index="1" speed="13.89" length="192.80" shape="-1.60,-207.20 -1.60,-400.00"/>
    </edge>
    <edge id="-E20" from="J31" to="J2" priority="-1">
        <lane id="-E20_0" index="0" speed="13.89" length="37.01" shape="4.37,-34.23 4.60,2.77"/>
        <lane id="-E20_1" index="1" speed="13.89" length="37.01" shape="1.17,-34.21 1.40,2.79"/>
    </edge>
    <edge id="A" from="J26" to="J1" priority="-1">
        <lane id="A_0" index="0" speed="13.89" length="86.54" shape="-96.51,90.42 -9.97,89.72"/>
        <lane id="A_1" index="1" speed="13.89" length="86.54" shape="-96.49,93.62 -9.95,92.92"/>
    </edge>
    <edge id="B" from="J30" to="J1" priority="-1">
        <lane id="B_0" index="0" speed="13.89" length="28.77" shape="5.17,55.32 5.19,84.09"/>
        <lane id="B_1" index="1" speed="13.89" length="28.77" shape="1.97,55.32 1.99,84.09"/>
    </edge>
    <edge id="C" from="J14" to="J1" priority="-1">
        <lane id="C_0" index="0" speed="13.89" length="31.85" shape="-1.60,130.32 -1.24,98.46"/>
    </edge>
    <edge id="C1" from="J0" to="J14" priority="-1">
        <lane id="C1_0" index="0" speed="13.89" length="62.15" shape="-1.60,192.80 -1.60,130.65"/>
    </edge>
    <edge id="D" from="J38" to="J30" priority="-1">
        <lane id="D_0" index="0" speed="13.89" length="30.80" shape="41.57,49.71 10.77,49.69"/>
        <lane id="D_1" index="1" speed="13.89" length="30.80" shape="41.57,46.51 10.77,46.49"/>
        <lane id="D_2" index="2" speed="13.89" length="30.80" shape="41.57,43.31 10.77,43.29"/>
    </edge>
    <edge id="E" from="J1" to="J30" priority="-1">
        <lane id="E_0" index="0" speed="13.89" length="28.77" shape="-4.41,84.09 -4.43,55.32"/>
        <lane id="E_1" index="1" speed="13.89" length="28.77" shape="-1.21,84.09 -1.23,55.32"/>
    </edge>
    <edge id="E0" from="J19" to="J20" priority="-1">
        <lane id="E0_0" index="0" speed="13.89" length="89.60" shape="10.40,-201.60 100.00,-201.60"/>
    </edge>
    <edge id="E1" from="J21" to="J22" priority="-1">
        <lane id="E1_0" index="0" speed="13.89" length="70.29" shape="-9.08,-182.74 -67.75,-221.44"/>
    </edge>
    <edge id="E1.46" from="J30" to="J2" priority="-1">
        <lane id="E1.46_0" index="0" speed="13.89" length="34.54" shape="-4.50,37.70 -5.00,3.17"/>
        <lane id="E1.46_1" index="1" speed="13.89" length="34.54" shape="-1.30,37.66 -1.80,3.12"/>
    </edge>
    <edge id="E10" from="J11" to="J28" priority="-1">
        <lane id="E10_0" index="0" speed="13.89" length="96.00" shape="-1.60,400.00 -1.60,304.00"/>
    </edge>
    <edge id="E10.100" from="J28" to="J0" priority="-1">
        <lane id="E10.100_0" index="0" speed="13.89" length="85.60" shape="-1.60,292.80 -1.60,207.20"/>
    </edge>
    <edge id="E11" from="J12" to="J27" priority="-1">
        <lane id="E11_0" index="0" speed="13.89" length="96.00" shape="-101.60,400.00 -101.60,304.00"/>
    </edge>
    <edge id="E11.100" from="J27" to="J8" priority="-1">
        <lane id="E11.100_0" index="0" speed="13.89" length="92.65" shape="-101.60,292.80 -101.60,200.15"/>
    </edge>
    <edge id="E12" from="J13" to="J0" priority="-1">
        <lane id="E12_0" index="0" speed="13.89" length="89.60" shape="100.00,201.60 10.40,201.60"/>
    </edge>
    <edge id="E14" from="J16" to="J9" priority="-1">
        <lane id="E14_0" index="0" speed="13.89" length="359.09" shape="401.16,-83.07 42.08,-84.20"/>
        <lane id="E14_1" index="1" speed="13.89" length="359.09" shape="401.17,-86.27 42.09,-87.40"/>
    </edge>
    <edge id="E15" from="J3" to="J17" priority="-1">
        <lane id="E15_0" index="0" speed="13.89" length="387.83" shape="-10.84,-83.96 -398.67,-84.05"/>
        <lane id="E15_1" index="1" speed="13.89" length="387.83" shape="-10.84,-87.16 -398.67,-87.25"/>
    </edge>
    <edge id="E16" from="J18" to="J19" priority="-1">
        <lane id="E16_0" index="0" speed="13.89" length="192.80" shape="4.80,-400.00 4.80,-207.20"/>
        <lane id="E16_1" index="1" speed="13.89" length="192.80" shape="1.60,-400.00 1.60,-207.20"/>
    </edge>
    <edge id="E160" from="J19" to="J21" priority="-1">
        <lane id="E160_0" index="0" speed="13.89" length="7.76" shape="4.80,-192.80 4.80,-185.04"/>
        <lane id="E160_1" index="1" speed="13.89" length="7.76" shape="1.60,-192.80 1.60,-185.04"/>
    </edge>
    <edge id="E1600" from="J21" to="J6" priority="-1">
        <lane id="E1600_0" index="0" speed="13.89" length="45.82" shape="4.80,-176.90 4.80,-131.09"/>
        <lane id="E1600_1" index="1" speed="13.89" length="45.82" shape="1.60,-176.90 1.60,-131.09"/>
    </edge>
    <edge id="E25" from="J8" to="J26" priority="-1">
        <lane id="E25_0" index="0" speed="13.89" length="100.61" shape="-101.60,199.85 -102.04,99.24"/>
    </edge>
    <edge id="E26" from="J27" to="J28" priority="-1">
        <lane id="E26_0" index="0" speed="13.89" length="88.80" shape="-96.00,298.40 -7.20,298.40"/>
    </edge>
    <edge id="E29" from="J29" to="J39" priority="-1">
        <lane id="E29_0" index="0" speed="13.89" length="53.63" shape="-106.39,-16.27 -58.61,-40.63"/>
        <lane id="E29_1" index="1" speed="13.89" length="53.63" shape="-104.94,-13.42 -57.16,-37.78"/>
    </edge>
    <edge id="E3" from="J4" to="J29" priority="-1">
        <lane id="E3_0" index="0" speed="13.89" length="274.32" shape="-400.02,-8.00 -125.69,-8.65"/>
        <lane id="E3_1" index="1" speed="13.89" length="274.32" shape="-400.01,-4.80 -125.69,-5.45"/>
        <lane id="E3_2" index="2" speed="13.89" length="274.32" shape="-400.00,-1.60 -125.68,-2.25"/>
    </edge>
    <edge id="E3.300" from="J29" to="J25" priority="-1">
        <lane id="E3.300_0" index="0" speed="13.89" length="201.57" shape="-103.78,-8.56 97.79,-7.77"/>
        <lane id="E3.300_1" index="1" speed="13.89" length="201.57" shape="-103.79,-5.36 97.78,-4.57"/>
        <lane id="E3.300_2" index="2" speed="13.89" length="201.57" shape="-103.81,-2.16 97.76,-1.37"/>
    </edge>
    <edge id="E3.498" from="J25" to="J5" priority="-1">
        <lane id="E3.498_0" index="0" speed="13.89" length="280.83" shape="119.16,-7.69 399.99,-8.00"/>
        <lane id="E3.498_1" index="1" speed="13.89" length="280.83" shape="119.16,-4.49 399.99,-4.80"/>
        <lane id="E3.498_2" index="2" speed="13.89" length="280.83" shape="119.17,-1.29 400.00,-1.60"/>
    </edge>
    <edge id="E30" from="J31" to="J36" priority="-1">